MODEL 1
REMARK VINA RESULT:      -3.3      0.000      0.000
REMARK  Name = 
REMARK  4 active torsions:
REMARK  status: ('A' for Active; 'I' for Inactive)
REMARK    1  A    between atoms: C_8  and  C_9
REMARK    2  A    between atoms: C_14  and  C_15
REMARK    3  A    between atoms: C_20  and  C_21
REMARK    4  A    between atoms: C_26  and  C_27
REMARK                            x       y       z     vdW  Elec       q    Type
REMARK                         _______ _______ _______ _____ _____    ______ ____
ROOT
ATOM      1  C   UNL     1     -18.813  14.028  17.150  0.00  0.00    +0.000 A 
ATOM      2  C   UNL     1     -18.439  14.291  15.809  0.00  0.00    +0.000 A 
ATOM      3  C   UNL     1     -17.888  15.510  15.420  0.00  0.00    +0.000 A 
ATOM      4  C   UNL     1     -17.742  16.527  16.348  0.00  0.00    +0.000 A 
ATOM      5  C   UNL     1     -18.164  16.332  17.661  0.00  0.00    +0.000 A 
ATOM      6  C   UNL     1     -18.711  15.098  18.102  0.00  0.00    +0.000 A 
ENDROOT
BRANCH   1  12
ATOM      7  C   UNL     1     -20.241   8.391  20.176  0.00  0.00    +0.000 A 
ATOM      8  C   UNL     1     -19.992   9.424  21.094  0.00  0.00    +0.000 A 
ATOM      9  C   UNL     1     -19.716  10.732  20.665  0.00  0.00    +0.000 A 
ATOM     10  C   UNL     1     -19.657  11.063  19.307  0.00  0.00    +0.000 A 
ATOM     11  N   UNL     1     -19.523  12.421  18.921  0.00  0.00    +0.000 N 
ATOM     12  C   UNL     1     -19.172  12.584  17.505  0.00  0.00    +0.000 C 
ATOM     13  C   UNL     1     -20.367  11.893  16.710  0.00  0.00    +0.000 C 
ATOM     14  C   UNL     1     -20.322  11.974  15.183  0.00  0.00    +0.000 C 
ATOM     15  C   UNL     1     -19.152  11.077  14.917  0.00  0.00    +0.000 C 
ATOM     16  C   UNL     1     -19.051  10.168  15.899  0.00  0.00    +0.000 C 
ATOM     17  C   UNL     1     -20.168  10.381  16.915  0.00  0.00    +0.000 C 
ATOM     18  C   UNL     1     -19.936  10.038  18.364  0.00  0.00    +0.000 A 
ATOM     19  C   UNL     1     -20.182   8.713  18.807  0.00  0.00    +0.000 A 
ATOM     20  H   UNL     1     -18.947  12.955  19.561  0.00  0.00    +0.000 HD
BRANCH   7  28
ATOM     21  C   UNL     1     -23.907   4.942  23.640  0.00  0.00    +0.000 A 
ATOM     22  C   UNL     1     -23.970   3.796  22.859  0.00  0.00    +0.000 A 
ATOM     23  C   UNL     1     -23.314   3.768  21.631  0.00  0.00    +0.000 A 
ATOM     24  C   UNL     1     -22.562   4.871  21.186  0.00  0.00    +0.000 A 
ATOM     25  C   UNL     1     -22.503   6.033  21.956  0.00  0.00    +0.000 A 
ATOM     26  C   UNL     1     -23.204   6.060  23.183  0.00  0.00    +0.000 A 
ATOM     27  N   UNL     1     -21.931   7.207  21.459  0.00  0.00    +0.000 N 
ATOM     28  C   UNL     1     -20.707   7.013  20.671  0.00  0.00    +0.000 C 
ATOM     29  C   UNL     1     -20.878   5.975  19.551  0.00  0.00    +0.000 C 
ATOM     30  C   UNL     1     -19.574   5.200  19.297  0.00  0.00    +0.000 C 
ATOM     31  C   UNL     1     -20.052   3.861  18.811  0.00  0.00    +0.000 C 
ATOM     32  C   UNL     1     -21.227   3.590  19.408  0.00  0.00    +0.000 C 
ATOM     33  C   UNL     1     -21.938   4.880  19.816  0.00  0.00    +0.000 C 
ATOM     34  H   UNL     1     -21.781   7.892  22.195  0.00  0.00    +0.000 HD
ENDBRANCH   7  28
ENDBRANCH   1  12
BRANCH   6  35
ATOM     35  C   UNL     1     -19.116  15.037  19.598  0.00  0.00    +0.000 C 
ATOM     36  N   UNL     1     -20.298  14.170  19.736  0.00  0.00    +0.000 N 
ATOM     37  C   UNL     1     -20.718  13.716  20.983  0.00  0.00    +0.000 A 
ATOM     38  C   UNL     1     -21.987  13.147  21.164  0.00  0.00    +0.000 A 
ATOM     39  C   UNL     1     -22.395  12.625  22.404  0.00  0.00    +0.000 A 
ATOM     40  C   UNL     1     -21.529  12.635  23.505  0.00  0.00    +0.000 A 
ATOM     41  C   UNL     1     -20.263  13.197  23.322  0.00  0.00    +0.000 A 
ATOM     42  C   UNL     1     -19.854  13.731  22.082  0.00  0.00    +0.000 A 
ATOM     43  C   UNL     1     -18.444  14.210  21.938  0.00  0.00    +0.000 C 
ATOM     44  C   UNL     1     -18.117  15.527  22.585  0.00  0.00    +0.000 C 
ATOM     45  C   UNL     1     -17.163  16.159  21.889  0.00  0.00    +0.000 C 
ATOM     46  C   UNL     1     -16.777  15.367  20.671  0.00  0.00    +0.000 C 
ATOM     47  C   UNL     1     -17.978  14.432  20.489  0.00  0.00    +0.000 C 
ATOM     48  H   UNL     1     -20.958  14.156  18.966  0.00  0.00    +0.000 HD
BRANCH  40  49
ATOM     49  C   UNL     1     -21.906  12.071  24.860  0.00  0.00    +0.000 C 
ATOM     50  N   UNL     1     -21.306  10.741  25.000  0.00  0.00    +0.000 N 
ATOM     51  C   UNL     1     -21.611  10.079  26.201  0.00  0.00    +0.000 A 
ATOM     52  C   UNL     1     -21.434   8.691  26.281  0.00  0.00    +0.000 A 
ATOM     53  C   UNL     1     -21.621   8.008  27.485  0.00  0.00    +0.000 A 
ATOM     54  C   UNL     1     -21.969   8.709  28.634  0.00  0.00    +0.000 A 
ATOM     55  C   UNL     1     -22.120  10.093  28.580  0.00  0.00    +0.000 A 
ATOM     56  C   UNL     1     -21.925  10.789  27.373  0.00  0.00    +0.000 A 
ATOM     57  C   UNL     1     -21.985  12.294  27.372  0.00  0.00    +0.000 C 
ATOM     58  C   UNL     1     -23.363  12.897  27.496  0.00  0.00    +0.000 C 
ATOM     59  C   UNL     1     -23.450  14.034  26.792  0.00  0.00    +0.000 C 
ATOM     60  C   UNL     1     -22.164  14.324  26.081  0.00  0.00    +0.000 C 
ATOM     61  C   UNL     1     -21.480  12.947  26.067  0.00  0.00    +0.000 C 
ATOM     62  H   UNL     1     -21.487  10.155  24.188  0.00  0.00    +0.000 HD
ENDBRANCH  40  49
ENDBRANCH   6  35
TORSDOF 4
ENDMDL
