MODEL 1
REMARK VINA RESULT:      -6.1      0.000      0.000
REMARK  Name = 
REMARK  9 active torsions:
REMARK  status: ('A' for Active; 'I' for Inactive)
REMARK    1  A    between atoms: C_2  and  C_3
REMARK    2  A    between atoms: C_6  and  O_7
REMARK    3  A    between atoms: O_7  and  C_8
REMARK    4  A    between atoms: C_8  and  C_9
REMARK    5  A    between atoms: C_8  and  C_10
REMARK    6  A    between atoms: C_8  and  N_11
REMARK    7  A    between atoms: N_11  and  C_12
REMARK    8  A    between atoms: N_11  and  C_13
REMARK    9  A    between atoms: C_13  and  C_14
REMARK                            x       y       z     vdW  Elec       q    Type
REMARK                         _______ _______ _______ _____ _____    ______ ____
ROOT
ATOM      1  C   UNL     1       8.968  42.467  30.815  0.00  0.00    +0.000 C 
ATOM      2  C   UNL     1      10.338  43.014  30.325  0.00  0.00    +0.000 C 
ATOM      3  C   UNL     1       7.840  42.598  29.764  0.00  0.00    +0.000 C 
ENDROOT
BRANCH   1   4
ATOM      4  N   UNL     1       8.542  43.223  32.049  0.00  0.00    +0.000 NA
ATOM      5  C   UNL     1       7.326  44.007  31.796  0.00  0.00    +0.000 C 
BRANCH   4   6
ATOM      6  C   UNL     1       8.451  42.405  33.283  0.00  0.00    +0.000 C 
BRANCH   6   7
ATOM      7  C   UNL     1       9.352  42.818  34.484  0.00  0.00    +0.000 C 
ATOM      8  C   UNL     1       8.916  44.177  35.059  0.00  0.00    +0.000 C 
ATOM      9  C   UNL     1       9.835  44.710  36.155  0.00  0.00    +0.000 C 
ATOM     10  C   UNL     1      10.960  45.595  35.625  0.00  0.00    +0.000 C 
ATOM     11  C   UNL     1      12.061  44.846  34.884  0.00  0.00    +0.000 C 
ATOM     12  C   UNL     1      11.563  44.018  33.700  0.00  0.00    +0.000 C 
ATOM     13  C   UNL     1      10.854  42.726  34.116  0.00  0.00    +0.000 C 
ENDBRANCH   6   7
ENDBRANCH   4   6
ENDBRANCH   1   4
BRANCH   1  14
ATOM     14  O   UNL     1       9.062  41.070  31.189  0.00  0.00    +0.000 OA
BRANCH  14  18
ATOM     15  C   UNL     1      12.282  38.569  30.367  0.00  0.00    +0.000 A 
ATOM     16  C   UNL     1      11.417  38.888  29.327  0.00  0.00    +0.000 A 
ATOM     17  C   UNL     1      10.313  39.698  29.568  0.00  0.00    +0.000 A 
ATOM     18  C   UNL     1      10.075  40.234  30.832  0.00  0.00    +0.000 A 
ATOM     19  C   UNL     1      10.948  39.897  31.872  0.00  0.00    +0.000 A 
ATOM     20  C   UNL     1      12.050  39.068  31.644  0.00  0.00    +0.000 A 
BRANCH  15  22
ATOM     21  C   UNL     1      14.309  36.964  29.900  0.00  0.00    +0.000 C 
ATOM     22  C   UNL     1      13.411  37.739  30.082  0.00  0.00    +0.000 C 
ENDBRANCH  15  22
ENDBRANCH  14  18
ENDBRANCH   1  14
TORSDOF 6
ENDMDL
MODEL 2
REMARK VINA RESULT:      -5.6      2.180      4.241
REMARK  Name = 
REMARK  9 active torsions:
REMARK  status: ('A' for Active; 'I' for Inactive)
REMARK    1  A    between atoms: C_2  and  C_3
REMARK    2  A    between atoms: C_6  and  O_7
REMARK    3  A    between atoms: O_7  and  C_8
REMARK    4  A    between atoms: C_8  and  C_9
REMARK    5  A    between atoms: C_8  and  C_10
REMARK    6  A    between atoms: C_8  and  N_11
REMARK    7  A    between atoms: N_11  and  C_12
REMARK    8  A    between atoms: N_11  and  C_13
REMARK    9  A    between atoms: C_13  and  C_14
REMARK                            x       y       z     vdW  Elec       q    Type
REMARK                         _______ _______ _______ _____ _____    ______ ____
ROOT
ATOM      1  C   UNL     1      10.572  42.357  32.934  0.00  0.00    +0.000 C 
ATOM      2  C   UNL     1       9.986  41.116  33.663  0.00  0.00    +0.000 C 
ATOM      3  C   UNL     1      11.835  42.933  33.615  0.00  0.00    +0.000 C 
ENDROOT
BRANCH   1   4
ATOM      4  N   UNL     1       9.530  43.447  32.892  0.00  0.00    +0.000 NA
ATOM      5  C   UNL     1       8.531  43.264  33.953  0.00  0.00    +0.000 C 
BRANCH   4   6
ATOM      6  C   UNL     1      10.071  44.828  32.846  0.00  0.00    +0.000 C 
BRANCH   6   7
ATOM      7  C   UNL     1       9.987  45.584  31.487  0.00  0.00    +0.000 C 
ATOM      8  C   UNL     1       9.036  44.866  30.513  0.00  0.00    +0.000 C 
ATOM      9  C   UNL     1       9.005  45.476  29.115  0.00  0.00    +0.000 C 
ATOM     10  C   UNL     1      10.022  44.855  28.161  0.00  0.00    +0.000 C 
ATOM     11  C   UNL     1      11.470  45.240  28.438  0.00  0.00    +0.000 C 
ATOM     12  C   UNL     1      11.941  44.908  29.854  0.00  0.00    +0.000 C 
ATOM     13  C   UNL     1      11.399  45.868  30.916  0.00  0.00    +0.000 C 
ENDBRANCH   6   7
ENDBRANCH   4   6
ENDBRANCH   1   4
BRANCH   1  14
ATOM     14  O   UNL     1      10.913  42.049  31.560  0.00  0.00    +0.000 OA
BRANCH  14  18
ATOM     15  C   UNL     1       9.359  38.990  29.209  0.00  0.00    +0.000 A 
ATOM     16  C   UNL     1       8.520  40.042  29.556  0.00  0.00    +0.000 A 
ATOM     17  C   UNL     1       8.995  41.070  30.364  0.00  0.00    +0.000 A 
ATOM     18  C   UNL     1      10.316  41.087  30.805  0.00  0.00    +0.000 A 
ATOM     19  C   UNL     1      11.147  40.017  30.457  0.00  0.00    +0.000 A 
ATOM     20  C   UNL     1      10.674  38.969  29.661  0.00  0.00    +0.000 A 
BRANCH  15  22
ATOM     21  C   UNL     1       8.341  37.055  27.752  0.00  0.00    +0.000 C 
ATOM     22  C   UNL     1       8.840  37.953  28.371  0.00  0.00    +0.000 C 
ENDBRANCH  15  22
ENDBRANCH  14  18
ENDBRANCH   1  14
TORSDOF 6
ENDMDL
MODEL 3
REMARK VINA RESULT:      -5.6      2.347      5.050
REMARK  Name = 
REMARK  9 active torsions:
REMARK  status: ('A' for Active; 'I' for Inactive)
REMARK    1  A    between atoms: C_2  and  C_3
REMARK    2  A    between atoms: C_6  and  O_7
REMARK    3  A    between atoms: O_7  and  C_8
REMARK    4  A    between atoms: C_8  and  C_9
REMARK    5  A    between atoms: C_8  and  C_10
REMARK    6  A    between atoms: C_8  and  N_11
REMARK    7  A    between atoms: N_11  and  C_12
REMARK    8  A    between atoms: N_11  and  C_13
REMARK    9  A    between atoms: C_13  and  C_14
REMARK                            x       y       z     vdW  Elec       q    Type
REMARK                         _______ _______ _______ _____ _____    ______ ____
ROOT
ATOM      1  C   UNL     1       9.687  41.650  30.520  0.00  0.00    +0.000 C 
ATOM      2  C   UNL     1       8.913  40.465  29.877  0.00  0.00    +0.000 C 
ATOM      3  C   UNL     1      11.171  41.331  30.813  0.00  0.00    +0.000 C 
ENDROOT
BRANCH   1   4
ATOM      4  N   UNL     1       9.026  42.024  31.824  0.00  0.00    +0.000 NA
ATOM      5  C   UNL     1       7.599  41.681  31.812  0.00  0.00    +0.000 C 
BRANCH   4   6
ATOM      6  C   UNL     1       9.723  41.536  33.040  0.00  0.00    +0.000 C 
BRANCH   6   7
ATOM      7  C   UNL     1      10.048  42.582  34.147  0.00  0.00    +0.000 C 
ATOM      8  C   UNL     1       9.127  43.809  34.035  0.00  0.00    +0.000 C 
ATOM      9  C   UNL     1       9.473  44.935  35.005  0.00  0.00    +0.000 C 
ATOM     10  C   UNL     1      10.455  45.951  34.428  0.00  0.00    +0.000 C 
ATOM     11  C   UNL     1      11.887  45.447  34.297  0.00  0.00    +0.000 C 
ATOM     12  C   UNL     1      12.025  44.179  33.454  0.00  0.00    +0.000 C 
ATOM     13  C   UNL     1      11.561  42.913  34.179  0.00  0.00    +0.000 C 
ENDBRANCH   6   7
ENDBRANCH   4   6
ENDBRANCH   1   4
BRANCH   1  14
ATOM     14  O   UNL     1       9.646  42.827  29.675  0.00  0.00    +0.000 OA
BRANCH  14  18
ATOM     15  C   UNL     1      10.765  46.673  30.795  0.00  0.00    +0.000 A 
ATOM     16  C   UNL     1      11.743  45.828  30.285  0.00  0.00    +0.000 A 
ATOM     17  C   UNL     1      11.414  44.525  29.925  0.00  0.00    +0.000 A 
ATOM     18  C   UNL     1      10.106  44.058  30.031  0.00  0.00    +0.000 A 
ATOM     19  C   UNL     1       9.133  44.916  30.554  0.00  0.00    +0.000 A 
ATOM     20  C   UNL     1       9.457  46.221  30.936  0.00  0.00    +0.000 A 
BRANCH  15  22
ATOM     21  C   UNL     1      11.513  49.085  31.519  0.00  0.00    +0.000 C 
ATOM     22  C   UNL     1      11.136  48.009  31.147  0.00  0.00    +0.000 C 
ENDBRANCH  15  22
ENDBRANCH  14  18
ENDBRANCH   1  14
TORSDOF 6
ENDMDL
MODEL 4
REMARK VINA RESULT:      -5.2      3.165      7.388
REMARK  Name = 
REMARK  9 active torsions:
REMARK  status: ('A' for Active; 'I' for Inactive)
REMARK    1  A    between atoms: C_2  and  C_3
REMARK    2  A    between atoms: C_6  and  O_7
REMARK    3  A    between atoms: O_7  and  C_8
REMARK    4  A    between atoms: C_8  and  C_9
REMARK    5  A    between atoms: C_8  and  C_10
REMARK    6  A    between atoms: C_8  and  N_11
REMARK    7  A    between atoms: N_11  and  C_12
REMARK    8  A    between atoms: N_11  and  C_13
REMARK    9  A    between atoms: C_13  and  C_14
REMARK                            x       y       z     vdW  Elec       q    Type
REMARK                         _______ _______ _______ _____ _____    ______ ____
ROOT
ATOM      1  C   UNL     1      10.364  42.375  32.314  0.00  0.00    +0.000 C 
ATOM      2  C   UNL     1      10.285  41.462  33.571  0.00  0.00    +0.000 C 
ATOM      3  C   UNL     1       9.026  43.071  31.974  0.00  0.00    +0.000 C 
ENDROOT
BRANCH   1   4
ATOM      4  N   UNL     1      10.770  41.544  31.122  0.00  0.00    +0.000 NA
ATOM      5  C   UNL     1      11.307  40.243  31.542  0.00  0.00    +0.000 C 
BRANCH   4   6
ATOM      6  C   UNL     1       9.738  41.423  30.064  0.00  0.00    +0.000 C 
BRANCH   6   7
ATOM      7  C   UNL     1       8.990  40.062  29.945  0.00  0.00    +0.000 C 
ATOM      8  C   UNL     1       9.270  39.394  28.588  0.00  0.00    +0.000 C 
ATOM      9  C   UNL     1       8.467  38.120  28.347  0.00  0.00    +0.000 C 
ATOM     10  C   UNL     1       7.132  38.368  27.649  0.00  0.00    +0.000 C 
ATOM     11  C   UNL     1       6.072  39.027  28.522  0.00  0.00    +0.000 C 
ATOM     12  C   UNL     1       6.505  40.364  29.124  0.00  0.00    +0.000 C 
ATOM     13  C   UNL     1       7.487  40.217  30.289  0.00  0.00    +0.000 C 
ENDBRANCH   6   7
ENDBRANCH   4   6
ENDBRANCH   1   4
BRANCH   1  14
ATOM     14  O   UNL     1      11.370  43.405  32.473  0.00  0.00    +0.000 OA
BRANCH  14  18
ATOM     15  C   UNL     1      11.085  47.266  30.953  0.00  0.00    +0.000 A 
ATOM     16  C   UNL     1      11.500  46.253  30.096  0.00  0.00    +0.000 A 
ATOM     17  C   UNL     1      11.635  44.954  30.574  0.00  0.00    +0.000 A 
ATOM     18  C   UNL     1      11.323  44.636  31.895  0.00  0.00    +0.000 A 
ATOM     19  C   UNL     1      10.915  45.667  32.748  0.00  0.00    +0.000 A 
ATOM     20  C   UNL     1      10.796  46.979  32.282  0.00  0.00    +0.000 A 
BRANCH  15  22
ATOM     21  C   UNL     1      10.945  49.697  29.967  0.00  0.00    +0.000 C 
ATOM     22  C   UNL     1      10.950  48.589  30.426  0.00  0.00    +0.000 C 
ENDBRANCH  15  22
ENDBRANCH  14  18
ENDBRANCH   1  14
TORSDOF 6
ENDMDL
MODEL 5
REMARK VINA RESULT:      -5.2      1.820      2.696
REMARK  Name = 
REMARK  9 active torsions:
REMARK  status: ('A' for Active; 'I' for Inactive)
REMARK    1  A    between atoms: C_2  and  C_3
REMARK    2  A    between atoms: C_6  and  O_7
REMARK    3  A    between atoms: O_7  and  C_8
REMARK    4  A    between atoms: C_8  and  C_9
REMARK    5  A    between atoms: C_8  and  C_10
REMARK    6  A    between atoms: C_8  and  N_11
REMARK    7  A    between atoms: N_11  and  C_12
REMARK    8  A    between atoms: N_11  and  C_13
REMARK    9  A    between atoms: C_13  and  C_14
REMARK                            x       y       z     vdW  Elec       q    Type
REMARK                         _______ _______ _______ _____ _____    ______ ____
ROOT
ATOM      1  C   UNL     1       8.890  42.136  30.491  0.00  0.00    +0.000 C 
ATOM      2  C   UNL     1      10.309  42.771  30.470  0.00  0.00    +0.000 C 
ATOM      3  C   UNL     1       8.082  42.389  29.197  0.00  0.00    +0.000 C 
ENDROOT
BRANCH   1   4
ATOM      4  N   UNL     1       8.107  42.709  31.646  0.00  0.00    +0.000 NA
ATOM      5  C   UNL     1       7.180  43.753  31.190  0.00  0.00    +0.000 C 
BRANCH   4   6
ATOM      6  C   UNL     1       7.452  41.703  32.518  0.00  0.00    +0.000 C 
BRANCH   6   7
ATOM      7  C   UNL     1       8.198  41.293  33.823  0.00  0.00    +0.000 C 
ATOM      8  C   UNL     1       7.515  40.089  34.495  0.00  0.00    +0.000 C 
ATOM      9  C   UNL     1       8.111  39.713  35.848  0.00  0.00    +0.000 C 
ATOM     10  C   UNL     1       7.437  40.415  37.023  0.00  0.00    +0.000 C 
ATOM     11  C   UNL     1       7.758  41.899  37.147  0.00  0.00    +0.000 C 
ATOM     12  C   UNL     1       7.419  42.715  35.900  0.00  0.00    +0.000 C 
ATOM     13  C   UNL     1       8.413  42.514  34.753  0.00  0.00    +0.000 C 
ENDBRANCH   6   7
ENDBRANCH   4   6
ENDBRANCH   1   4
BRANCH   1  14
ATOM     14  O   UNL     1       8.956  40.703  30.698  0.00  0.00    +0.000 OA
BRANCH  14  18
ATOM     15  C   UNL     1      12.414  38.432  30.268  0.00  0.00    +0.000 A 
ATOM     16  C   UNL     1      11.598  38.601  29.156  0.00  0.00    +0.000 A 
ATOM     17  C   UNL     1      10.419  39.331  29.266  0.00  0.00    +0.000 A 
ATOM     18  C   UNL     1      10.054  39.933  30.469  0.00  0.00    +0.000 A 
ATOM     19  C   UNL     1      10.880  39.746  31.583  0.00  0.00    +0.000 A 
ATOM     20  C   UNL     1      12.057  38.999  31.487  0.00  0.00    +0.000 A 
BRANCH  15  22
ATOM     21  C   UNL     1      14.583  36.991  29.919  0.00  0.00    +0.000 C 
ATOM     22  C   UNL     1      13.623  37.682  30.117  0.00  0.00    +0.000 C 
ENDBRANCH  15  22
ENDBRANCH  14  18
ENDBRANCH   1  14
TORSDOF 6
ENDMDL
MODEL 6
REMARK VINA RESULT:      -5.1      2.411      5.025
REMARK  Name = 
REMARK  9 active torsions:
REMARK  status: ('A' for Active; 'I' for Inactive)
REMARK    1  A    between atoms: C_2  and  C_3
REMARK    2  A    between atoms: C_6  and  O_7
REMARK    3  A    between atoms: O_7  and  C_8
REMARK    4  A    between atoms: C_8  and  C_9
REMARK    5  A    between atoms: C_8  and  C_10
REMARK    6  A    between atoms: C_8  and  N_11
REMARK    7  A    between atoms: N_11  and  C_12
REMARK    8  A    between atoms: N_11  and  C_13
REMARK    9  A    between atoms: C_13  and  C_14
REMARK                            x       y       z     vdW  Elec       q    Type
REMARK                         _______ _______ _______ _____ _____    ______ ____
ROOT
ATOM      1  C   UNL     1       9.729  45.223  34.957  0.00  0.00    +0.000 C 
ATOM      2  C   UNL     1       8.864  45.755  36.134  0.00  0.00    +0.000 C 
ATOM      3  C   UNL     1      11.105  45.921  34.839  0.00  0.00    +0.000 C 
ENDROOT
BRANCH   1   4
ATOM      4  N   UNL     1       8.989  45.436  33.660  0.00  0.00    +0.000 NA
ATOM      5  C   UNL     1       7.703  46.108  33.890  0.00  0.00    +0.000 C 
BRANCH   4   6
ATOM      6  C   UNL     1       9.785  46.075  32.584  0.00  0.00    +0.000 C 
BRANCH   6   7
ATOM      7  C   UNL     1       9.983  45.268  31.266  0.00  0.00    +0.000 C 
ATOM      8  C   UNL     1      11.478  45.054  30.969  0.00  0.00    +0.000 C 
ATOM      9  C   UNL     1      11.754  44.386  29.626  0.00  0.00    +0.000 C 
ATOM     10  C   UNL     1      11.941  45.379  28.482  0.00  0.00    +0.000 C 
ATOM     11  C   UNL     1      10.662  46.069  28.024  0.00  0.00    +0.000 C 
ATOM     12  C   UNL     1       9.927  46.818  29.136  0.00  0.00    +0.000 C 
ATOM     13  C   UNL     1       9.178  45.893  30.099  0.00  0.00    +0.000 C 
ENDBRANCH   6   7
ENDBRANCH   4   6
ENDBRANCH   1   4
BRANCH   1  14
ATOM     14  O   UNL     1       9.966  43.799  35.078  0.00  0.00    +0.000 OA
BRANCH  14  18
ATOM     15  C   UNL     1      10.190  41.142  31.885  0.00  0.00    +0.000 A 
ATOM     16  C   UNL     1       8.931  41.517  32.339  0.00  0.00    +0.000 A 
ATOM     17  C   UNL     1       8.815  42.382  33.422  0.00  0.00    +0.000 A 
ATOM     18  C   UNL     1       9.943  42.915  34.043  0.00  0.00    +0.000 A 
ATOM     19  C   UNL     1      11.204  42.521  33.582  0.00  0.00    +0.000 A 
ATOM     20  C   UNL     1      11.331  41.637  32.507  0.00  0.00    +0.000 A 
BRANCH  15  22
ATOM     21  C   UNL     1      10.431  39.571  29.793  0.00  0.00    +0.000 C 
ATOM     22  C   UNL     1      10.273  40.257  30.765  0.00  0.00    +0.000 C 
ENDBRANCH  15  22
ENDBRANCH  14  18
ENDBRANCH   1  14
TORSDOF 6
ENDMDL
MODEL 7
REMARK VINA RESULT:      -4.0      1.949      3.679
REMARK  Name = 
REMARK  9 active torsions:
REMARK  status: ('A' for Active; 'I' for Inactive)
REMARK    1  A    between atoms: C_2  and  C_3
REMARK    2  A    between atoms: C_6  and  O_7
REMARK    3  A    between atoms: O_7  and  C_8
REMARK    4  A    between atoms: C_8  and  C_9
REMARK    5  A    between atoms: C_8  and  C_10
REMARK    6  A    between atoms: C_8  and  N_11
REMARK    7  A    between atoms: N_11  and  C_12
REMARK    8  A    between atoms: N_11  and  C_13
REMARK    9  A    between atoms: C_13  and  C_14
REMARK                            x       y       z     vdW  Elec       q    Type
REMARK                         _______ _______ _______ _____ _____    ______ ____
ROOT
ATOM      1  C   UNL     1       5.699  44.041  32.927  0.00  0.00    +0.000 C 
ATOM      2  C   UNL     1       4.415  44.907  32.793  0.00  0.00    +0.000 C 
ATOM      3  C   UNL     1       5.898  43.449  34.342  0.00  0.00    +0.000 C 
ENDROOT
BRANCH   1   4
ATOM      4  N   UNL     1       6.905  44.888  32.605  0.00  0.00    +0.000 NA
ATOM      5  C   UNL     1       6.510  46.253  32.236  0.00  0.00    +0.000 C 
BRANCH   4   6
ATOM      6  C   UNL     1       7.980  44.859  33.628  0.00  0.00    +0.000 C 
BRANCH   6   7
ATOM      7  C   UNL     1       9.440  44.655  33.125  0.00  0.00    +0.000 C 
ATOM      8  C   UNL     1       9.953  43.248  33.474  0.00  0.00    +0.000 C 
ATOM      9  C   UNL     1      11.422  43.020  33.130  0.00  0.00    +0.000 C 
ATOM     10  C   UNL     1      12.372  43.361  34.275  0.00  0.00    +0.000 C 
ATOM     11  C   UNL     1      12.531  44.852  34.546  0.00  0.00    +0.000 C 
ATOM     12  C   UNL     1      11.216  45.574  34.841  0.00  0.00    +0.000 C 
ATOM     13  C   UNL     1      10.360  45.811  33.594  0.00  0.00    +0.000 C 
ENDBRANCH   6   7
ENDBRANCH   4   6
ENDBRANCH   1   4
BRANCH   1  14
ATOM     14  O   UNL     1       5.693  42.940  31.985  0.00  0.00    +0.000 OA
BRANCH  14  18
ATOM     15  C   UNL     1       9.073  40.805  30.839  0.00  0.00    +0.000 A 
ATOM     16  C   UNL     1       8.756  41.959  30.132  0.00  0.00    +0.000 A 
ATOM     17  C   UNL     1       7.618  42.685  30.468  0.00  0.00    +0.000 A 
ATOM     18  C   UNL     1       6.804  42.298  31.530  0.00  0.00    +0.000 A 
ATOM     19  C   UNL     1       7.130  41.129  32.226  0.00  0.00    +0.000 A 
ATOM     20  C   UNL     1       8.261  40.382  31.884  0.00  0.00    +0.000 A 
BRANCH  15  22
ATOM     21  C   UNL     1      11.255  39.552  30.080  0.00  0.00    +0.000 C 
ATOM     22  C   UNL     1      10.255  40.087  30.472  0.00  0.00    +0.000 C 
ENDBRANCH  15  22
ENDBRANCH  14  18
ENDBRANCH   1  14
TORSDOF 6
ENDMDL
MODEL 8
REMARK VINA RESULT:      -4.0      3.654      5.529
REMARK  Name = 
REMARK  9 active torsions:
REMARK  status: ('A' for Active; 'I' for Inactive)
REMARK    1  A    between atoms: C_2  and  C_3
REMARK    2  A    between atoms: C_6  and  O_7
REMARK    3  A    between atoms: O_7  and  C_8
REMARK    4  A    between atoms: C_8  and  C_9
REMARK    5  A    between atoms: C_8  and  C_10
REMARK    6  A    between atoms: C_8  and  N_11
REMARK    7  A    between atoms: N_11  and  C_12
REMARK    8  A    between atoms: N_11  and  C_13
REMARK    9  A    between atoms: C_13  and  C_14
REMARK                            x       y       z     vdW  Elec       q    Type
REMARK                         _______ _______ _______ _____ _____    ______ ____
ROOT
ATOM      1  C   UNL     1       7.812  44.458  34.840  0.00  0.00    +0.000 C 
ATOM      2  C   UNL     1       6.661  44.789  35.831  0.00  0.00    +0.000 C 
ATOM      3  C   UNL     1       9.164  44.181  35.537  0.00  0.00    +0.000 C 
ENDROOT
BRANCH   1   4
ATOM      4  N   UNL     1       8.006  45.621  33.898  0.00  0.00    +0.000 NA
ATOM      5  C   UNL     1       8.891  46.635  34.485  0.00  0.00    +0.000 C 
BRANCH   4   6
ATOM      6  C   UNL     1       8.398  45.247  32.517  0.00  0.00    +0.000 C 
BRANCH   6   7
ATOM      7  C   UNL     1       9.862  45.555  32.081  0.00  0.00    +0.000 C 
ATOM      8  C   UNL     1       9.890  46.541  30.900  0.00  0.00    +0.000 C 
ATOM      9  C   UNL     1      11.284  46.788  30.332  0.00  0.00    +0.000 C 
ATOM     10  C   UNL     1      11.655  45.835  29.200  0.00  0.00    +0.000 C 
ATOM     11  C   UNL     1      11.946  44.406  29.642  0.00  0.00    +0.000 C 
ATOM     12  C   UNL     1      10.800  43.747  30.409  0.00  0.00    +0.000 C 
ATOM     13  C   UNL     1      10.664  44.250  31.849  0.00  0.00    +0.000 C 
ENDBRANCH   6   7
ENDBRANCH   4   6
ENDBRANCH   1   4
BRANCH   1  14
ATOM     14  O   UNL     1       7.491  43.305  34.025  0.00  0.00    +0.000 OA
BRANCH  14  18
ATOM     15  C   UNL     1       7.802  39.387  35.385  0.00  0.00    +0.000 A 
ATOM     16  C   UNL     1       8.783  39.861  34.522  0.00  0.00    +0.000 A 
ATOM     17  C   UNL     1       8.699  41.157  34.024  0.00  0.00    +0.000 A 
ATOM     18  C   UNL     1       7.664  42.009  34.404  0.00  0.00    +0.000 A 
ATOM     19  C   UNL     1       6.678  41.515  35.266  0.00  0.00    +0.000 A 
ATOM     20  C   UNL     1       6.744  40.208  35.757  0.00  0.00    +0.000 A 
BRANCH  15  22
ATOM     21  C   UNL     1       8.107  36.969  36.367  0.00  0.00    +0.000 C 
ATOM     22  C   UNL     1       7.924  38.052  35.885  0.00  0.00    +0.000 C 
ENDBRANCH  15  22
ENDBRANCH  14  18
ENDBRANCH   1  14
TORSDOF 6
ENDMDL
MODEL 9
REMARK VINA RESULT:      -3.3      5.309      8.845
REMARK  Name = 
REMARK  9 active torsions:
REMARK  status: ('A' for Active; 'I' for Inactive)
REMARK    1  A    between atoms: C_2  and  C_3
REMARK    2  A    between atoms: C_6  and  O_7
REMARK    3  A    between atoms: O_7  and  C_8
REMARK    4  A    between atoms: C_8  and  C_9
REMARK    5  A    between atoms: C_8  and  C_10
REMARK    6  A    between atoms: C_8  and  N_11
REMARK    7  A    between atoms: N_11  and  C_12
REMARK    8  A    between atoms: N_11  and  C_13
REMARK    9  A    between atoms: C_13  and  C_14
REMARK                            x       y       z     vdW  Elec       q    Type
REMARK                         _______ _______ _______ _____ _____    ______ ____
ROOT
ATOM      1  C   UNL     1       4.583  40.681  28.120  0.00  0.00    +0.000 C 
ATOM      2  C   UNL     1       3.467  40.120  29.045  0.00  0.00    +0.000 C 
ATOM      3  C   UNL     1       4.933  42.160  28.405  0.00  0.00    +0.000 C 
ENDROOT
BRANCH   1   4
ATOM      4  N   UNL     1       4.135  40.580  26.683  0.00  0.00    +0.000 NA
ATOM      5  C   UNL     1       2.670  40.602  26.583  0.00  0.00    +0.000 C 
BRANCH   4   6
ATOM      6  C   UNL     1       4.787  41.537  25.756  0.00  0.00    +0.000 C 
BRANCH   6   7
ATOM      7  C   UNL     1       5.851  40.968  24.771  0.00  0.00    +0.000 C 
ATOM      8  C   UNL     1       6.104  41.942  23.607  0.00  0.00    +0.000 C 
ATOM      9  C   UNL     1       7.037  41.394  22.531  0.00  0.00    +0.000 C 
ATOM     10  C   UNL     1       6.305  40.663  21.410  0.00  0.00    +0.000 C 
ATOM     11  C   UNL     1       5.743  39.302  21.800  0.00  0.00    +0.000 C 
ATOM     12  C   UNL     1       4.786  39.343  22.991  0.00  0.00    +0.000 C 
ATOM     13  C   UNL     1       5.496  39.524  24.336  0.00  0.00    +0.000 C 
ENDBRANCH   6   7
ENDBRANCH   4   6
ENDBRANCH   1   4
BRANCH   1  14
ATOM     14  O   UNL     1       5.803  39.908  28.236  0.00  0.00    +0.000 OA
BRANCH  14  18
ATOM     15  C   UNL     1       8.993  40.506  30.837  0.00  0.00    +0.000 A 
ATOM     16  C   UNL     1       7.706  40.522  31.362  0.00  0.00    +0.000 A 
ATOM     17  C   UNL     1       6.612  40.354  30.520  0.00  0.00    +0.000 A 
ATOM     18  C   UNL     1       6.781  40.129  29.156  0.00  0.00    +0.000 A 
ATOM     19  C   UNL     1       8.081  40.125  28.639  0.00  0.00    +0.000 A 
ATOM     20  C   UNL     1       9.186  40.312  29.474  0.00  0.00    +0.000 A 
BRANCH  15  22
ATOM     21  C   UNL     1      11.085  40.814  32.396  0.00  0.00    +0.000 C 
ATOM     22  C   UNL     1      10.095  40.674  31.733  0.00  0.00    +0.000 C 
ENDBRANCH  15  22
ENDBRANCH  14  18
ENDBRANCH   1  14
TORSDOF 6
ENDMDL
