MODEL 1
REMARK VINA RESULT:      -7.8      0.000      0.000
REMARK  Name = 
REMARK  4 active torsions:
REMARK  status: ('A' for Active; 'I' for Inactive)
REMARK    1  A    between atoms: C_8  and  C_9
REMARK    2  A    between atoms: C_14  and  C_15
REMARK    3  A    between atoms: C_20  and  C_21
REMARK    4  A    between atoms: C_26  and  C_27
REMARK                            x       y       z     vdW  Elec       q    Type
REMARK                         _______ _______ _______ _____ _____    ______ ____
ROOT
ATOM      1  C   UNL     1     -34.535   7.660   7.958  0.00  0.00    +0.000 A 
ATOM      2  C   UNL     1     -34.700   8.413   6.769  0.00  0.00    +0.000 A 
ATOM      3  C   UNL     1     -34.227   9.718   6.648  0.00  0.00    +0.000 A 
ATOM      4  C   UNL     1     -33.621  10.334   7.730  0.00  0.00    +0.000 A 
ATOM      5  C   UNL     1     -33.504   9.653   8.939  0.00  0.00    +0.000 A 
ATOM      6  C   UNL     1     -33.955   8.315   9.097  0.00  0.00    +0.000 A 
ENDROOT
BRANCH   1  12
ATOM      7  C   UNL     1     -34.372   1.116   7.643  0.00  0.00    +0.000 A 
ATOM      8  C   UNL     1     -33.081   1.668   7.636  0.00  0.00    +0.000 A 
ATOM      9  C   UNL     1     -32.878   3.052   7.748  0.00  0.00    +0.000 A 
ATOM     10  C   UNL     1     -33.949   3.946   7.852  0.00  0.00    +0.000 A 
ATOM     11  N   UNL     1     -33.696   5.316   8.112  0.00  0.00    +0.000 N 
ATOM     12  C   UNL     1     -34.870   6.169   7.893  0.00  0.00    +0.000 C 
ATOM     13  C   UNL     1     -35.972   5.606   8.896  0.00  0.00    +0.000 C 
ATOM     14  C   UNL     1     -37.304   6.355   8.956  0.00  0.00    +0.000 C 
ATOM     15  C   UNL     1     -37.847   6.013   7.602  0.00  0.00    +0.000 C 
ATOM     16  C   UNL     1     -37.353   4.829   7.206  0.00  0.00    +0.000 C 
ATOM     17  C   UNL     1     -36.430   4.271   8.284  0.00  0.00    +0.000 C 
ATOM     18  C   UNL     1     -35.261   3.404   7.892  0.00  0.00    +0.000 A 
ATOM     19  C   UNL     1     -35.457   2.006   7.746  0.00  0.00    +0.000 A 
ATOM     20  H   UNL     1     -32.847   5.649   7.670  0.00  0.00    +0.000 HD
BRANCH   7  28
ATOM     21  C   UNL     1     -32.231  -4.541   6.772  0.00  0.00    +0.000 A 
ATOM     22  C   UNL     1     -32.947  -5.223   7.746  0.00  0.00    +0.000 A 
ATOM     23  C   UNL     1     -33.802  -4.517   8.587  0.00  0.00    +0.000 A 
ATOM     24  C   UNL     1     -33.979  -3.128   8.442  0.00  0.00    +0.000 A 
ATOM     25  C   UNL     1     -33.254  -2.430   7.475  0.00  0.00    +0.000 A 
ATOM     26  C   UNL     1     -32.361  -3.155   6.654  0.00  0.00    +0.000 A 
ATOM     27  N   UNL     1     -33.257  -1.033   7.432  0.00  0.00    +0.000 N 
ATOM     28  C   UNL     1     -34.560  -0.409   7.691  0.00  0.00    +0.000 C 
ATOM     29  C   UNL     1     -35.214  -0.914   8.987  0.00  0.00    +0.000 C 
ATOM     30  C   UNL     1     -36.747  -0.947   8.869  0.00  0.00    +0.000 C 
ATOM     31  C   UNL     1     -37.144  -2.068   9.787  0.00  0.00    +0.000 C 
ATOM     32  C   UNL     1     -36.163  -2.989   9.780  0.00  0.00    +0.000 C 
ATOM     33  C   UNL     1     -34.824  -2.349   9.414  0.00  0.00    +0.000 C 
ATOM     34  H   UNL     1     -32.857  -0.684   6.565  0.00  0.00    +0.000 HD
ENDBRANCH   7  28
ENDBRANCH   1  12
BRANCH   6  35
ATOM     35  C   UNL     1     -33.737   7.692  10.501  0.00  0.00    +0.000 C 
ATOM     36  N   UNL     1     -35.028   7.197  11.007  0.00  0.00    +0.000 N 
ATOM     37  C   UNL     1     -35.094   6.356  12.114  0.00  0.00    +0.000 A 
ATOM     38  C   UNL     1     -36.304   6.118  12.780  0.00  0.00    +0.000 A 
ATOM     39  C   UNL     1     -36.394   5.218  13.857  0.00  0.00    +0.000 A 
ATOM     40  C   UNL     1     -35.268   4.504  14.288  0.00  0.00    +0.000 A 
ATOM     41  C   UNL     1     -34.064   4.737  13.620  0.00  0.00    +0.000 A 
ATOM     42  C   UNL     1     -33.968   5.647  12.546  0.00  0.00    +0.000 A 
ATOM     43  C   UNL     1     -32.670   5.754  11.811  0.00  0.00    +0.000 C 
ATOM     44  C   UNL     1     -31.567   6.501  12.509  0.00  0.00    +0.000 C 
ATOM     45  C   UNL     1     -30.780   7.106  11.611  0.00  0.00    +0.000 C 
ATOM     46  C   UNL     1     -31.289   6.881  10.214  0.00  0.00    +0.000 C 
ATOM     47  C   UNL     1     -32.748   6.478  10.455  0.00  0.00    +0.000 C 
ATOM     48  H   UNL     1     -35.861   7.705  10.732  0.00  0.00    +0.000 HD
BRANCH  40  49
ATOM     49  C   UNL     1     -35.307   3.508  15.430  0.00  0.00    +0.000 C 
ATOM     50  N   UNL     1     -35.451   2.160  14.874  0.00  0.00    +0.000 N 
ATOM     51  C   UNL     1     -35.543   1.133  15.829  0.00  0.00    +0.000 A 
ATOM     52  C   UNL     1     -36.067  -0.109  15.449  0.00  0.00    +0.000 A 
ATOM     53  C   UNL     1     -36.077  -1.189  16.335  0.00  0.00    +0.000 A 
ATOM     54  C   UNL     1     -35.545  -1.045  17.612  0.00  0.00    +0.000 A 
ATOM     55  C   UNL     1     -34.994   0.175  17.997  0.00  0.00    +0.000 A 
ATOM     56  C   UNL     1     -34.971   1.265  17.107  0.00  0.00    +0.000 A 
ATOM     57  C   UNL     1     -34.268   2.533  17.512  0.00  0.00    +0.000 C 
ATOM     58  C   UNL     1     -34.984   3.384  18.533  0.00  0.00    +0.000 C 
ATOM     59  C   UNL     1     -34.763   4.686  18.309  0.00  0.00    +0.000 C 
ATOM     60  C   UNL     1     -33.904   4.882  17.097  0.00  0.00    +0.000 C 
ATOM     61  C   UNL     1     -34.067   3.542  16.361  0.00  0.00    +0.000 C 
ATOM     62  H   UNL     1     -36.202   2.108  14.189  0.00  0.00    +0.000 HD
ENDBRANCH  40  49
ENDBRANCH   6  35
TORSDOF 4
ENDMDL
MODEL 2
REMARK VINA RESULT:      -5.5      1.730      1.902
REMARK  Name = 
REMARK  4 active torsions:
REMARK  status: ('A' for Active; 'I' for Inactive)
REMARK    1  A    between atoms: C_8  and  C_9
REMARK    2  A    between atoms: C_14  and  C_15
REMARK    3  A    between atoms: C_20  and  C_21
REMARK    4  A    between atoms: C_26  and  C_27
REMARK                            x       y       z     vdW  Elec       q    Type
REMARK                         _______ _______ _______ _____ _____    ______ ____
ROOT
ATOM      1  C   UNL     1     -34.638   7.773   8.773  0.00  0.00    +0.000 A 
ATOM      2  C   UNL     1     -34.730   8.564   7.601  0.00  0.00    +0.000 A 
ATOM      3  C   UNL     1     -34.055   9.776   7.471  0.00  0.00    +0.000 A 
ATOM      4  C   UNL     1     -33.309  10.265   8.530  0.00  0.00    +0.000 A 
ATOM      5  C   UNL     1     -33.251   9.552   9.725  0.00  0.00    +0.000 A 
ATOM      6  C   UNL     1     -33.907   8.303   9.890  0.00  0.00    +0.000 A 
ENDROOT
BRANCH   1  12
ATOM      7  C   UNL     1     -35.865   1.370   9.448  0.00  0.00    +0.000 A 
ATOM      8  C   UNL     1     -34.712   1.754  10.150  0.00  0.00    +0.000 A 
ATOM      9  C   UNL     1     -34.290   3.093  10.186  0.00  0.00    +0.000 A 
ATOM     10  C   UNL     1     -34.985   4.101   9.510  0.00  0.00    +0.000 A 
ATOM     11  N   UNL     1     -34.611   5.456   9.695  0.00  0.00    +0.000 N 
ATOM     12  C   UNL     1     -35.215   6.358   8.708  0.00  0.00    +0.000 C 
ATOM     13  C   UNL     1     -36.786   6.181   8.906  0.00  0.00    +0.000 C 
ATOM     14  C   UNL     1     -37.696   7.069   8.056  0.00  0.00    +0.000 C 
ATOM     15  C   UNL     1     -37.439   6.474   6.705  0.00  0.00    +0.000 C 
ATOM     16  C   UNL     1     -37.102   5.182   6.840  0.00  0.00    +0.000 C 
ATOM     17  C   UNL     1     -37.114   4.799   8.316  0.00  0.00    +0.000 C 
ATOM     18  C   UNL     1     -36.172   3.736   8.820  0.00  0.00    +0.000 A 
ATOM     19  C   UNL     1     -36.571   2.376   8.763  0.00  0.00    +0.000 A 
ATOM     20  H   UNL     1     -33.612   5.573   9.816  0.00  0.00    +0.000 HD
BRANCH   7  28
ATOM     21  C   UNL     1     -37.833  -3.803   6.858  0.00  0.00    +0.000 A 
ATOM     22  C   UNL     1     -37.440  -4.721   7.823  0.00  0.00    +0.000 A 
ATOM     23  C   UNL     1     -36.743  -4.279   8.944  0.00  0.00    +0.000 A 
ATOM     24  C   UNL     1     -36.461  -2.913   9.131  0.00  0.00    +0.000 A 
ATOM     25  C   UNL     1     -36.840  -1.983   8.162  0.00  0.00    +0.000 A 
ATOM     26  C   UNL     1     -37.513  -2.451   7.011  0.00  0.00    +0.000 A 
ATOM     27  N   UNL     1     -36.407  -0.655   8.220  0.00  0.00    +0.000 N 
ATOM     28  C   UNL     1     -36.398  -0.066   9.565  0.00  0.00    +0.000 C 
ATOM     29  C   UNL     1     -35.641  -0.930  10.587  0.00  0.00    +0.000 C 
ATOM     30  C   UNL     1     -36.263  -0.817  11.990  0.00  0.00    +0.000 C 
ATOM     31  C   UNL     1     -35.962  -2.151  12.613  0.00  0.00    +0.000 C 
ATOM     32  C   UNL     1     -35.954  -3.081  11.640  0.00  0.00    +0.000 C 
ATOM     33  C   UNL     1     -35.620  -2.448  10.290  0.00  0.00    +0.000 C 
ATOM     34  H   UNL     1     -36.922  -0.065   7.572  0.00  0.00    +0.000 HD
ENDBRANCH   7  28
ENDBRANCH   1  12
BRANCH   6  35
ATOM     35  C   UNL     1     -33.732   7.628  11.275  0.00  0.00    +0.000 C 
ATOM     36  N   UNL     1     -35.045   7.154  11.743  0.00  0.00    +0.000 N 
ATOM     37  C   UNL     1     -35.154   6.279  12.820  0.00  0.00    +0.000 A 
ATOM     38  C   UNL     1     -36.383   6.055  13.458  0.00  0.00    +0.000 A 
ATOM     39  C   UNL     1     -36.516   5.122  14.501  0.00  0.00    +0.000 A 
ATOM     40  C   UNL     1     -35.420   4.362  14.927  0.00  0.00    +0.000 A 
ATOM     41  C   UNL     1     -34.197   4.581  14.287  0.00  0.00    +0.000 A 
ATOM     42  C   UNL     1     -34.057   5.523  13.246  0.00  0.00    +0.000 A 
ATOM     43  C   UNL     1     -32.744   5.616  12.536  0.00  0.00    +0.000 C 
ATOM     44  C   UNL     1     -31.632   6.306  13.277  0.00  0.00    +0.000 C 
ATOM     45  C   UNL     1     -30.812   6.918  12.413  0.00  0.00    +0.000 C 
ATOM     46  C   UNL     1     -31.304   6.755  11.001  0.00  0.00    +0.000 C 
ATOM     47  C   UNL     1     -32.778   6.387  11.204  0.00  0.00    +0.000 C 
ATOM     48  H   UNL     1     -35.858   7.695  11.472  0.00  0.00    +0.000 HD
BRANCH  40  49
ATOM     49  C   UNL     1     -35.507   3.329  16.033  0.00  0.00    +0.000 C 
ATOM     50  N   UNL     1     -35.668   2.004  15.429  0.00  0.00    +0.000 N 
ATOM     51  C   UNL     1     -35.806   0.949  16.347  0.00  0.00    +0.000 A 
ATOM     52  C   UNL     1     -36.348  -0.268  15.914  0.00  0.00    +0.000 A 
ATOM     53  C   UNL     1     -36.403  -1.376  16.763  0.00  0.00    +0.000 A 
ATOM     54  C   UNL     1     -35.897  -1.287  18.055  0.00  0.00    +0.000 A 
ATOM     55  C   UNL     1     -35.328  -0.093  18.493  0.00  0.00    +0.000 A 
ATOM     56  C   UNL     1     -35.260   1.025  17.641  0.00  0.00    +0.000 A 
ATOM     57  C   UNL     1     -34.538   2.262  18.104  0.00  0.00    +0.000 C 
ATOM     58  C   UNL     1     -35.258   3.095  19.137  0.00  0.00    +0.000 C 
ATOM     59  C   UNL     1     -35.002   4.398  18.961  0.00  0.00    +0.000 C 
ATOM     60  C   UNL     1     -34.111   4.614  17.776  0.00  0.00    +0.000 C 
ATOM     61  C   UNL     1     -34.288   3.303  16.992  0.00  0.00    +0.000 C 
ATOM     62  H   UNL     1     -36.405   1.993  14.727  0.00  0.00    +0.000 HD
ENDBRANCH  40  49
ENDBRANCH   6  35
TORSDOF 4
ENDMDL
