MODEL 1
REMARK VINA RESULT:      -5.8      0.000      0.000
REMARK  Name = 
REMARK  8 active torsions:
REMARK  status: ('A' for Active; 'I' for Inactive)
REMARK    1  A    between atoms: N_2  and  C_3
REMARK    2  A    between atoms: C_5  and  S_6
REMARK    3  A    between atoms: S_6  and  C_7
REMARK    4  A    between atoms: C_7  and  C_8
REMARK    5  A    between atoms: C_7  and  C_9
REMARK    6  A    between atoms: C_9  and  N_10
REMARK    7  A    between atoms: C_12  and  C_13
REMARK    8  A    between atoms: C_16  and  C_17
REMARK                            x       y       z     vdW  Elec       q    Type
REMARK                         _______ _______ _______ _____ _____    ______ ____
ROOT
ATOM      1  C   UNL     1      12.379  38.282  29.845  0.00  0.00    +0.000 A 
ATOM      2  C   UNL     1      11.344  38.887  29.122  0.00  0.00    +0.000 A 
ATOM      3  C   UNL     1      10.408  39.744  29.730  0.00  0.00    +0.000 A 
ATOM      4  C   UNL     1      10.577  40.082  31.097  0.00  0.00    +0.000 A 
ATOM      5  C   UNL     1      11.642  39.489  31.807  0.00  0.00    +0.000 A 
ATOM      6  C   UNL     1      12.521  38.598  31.192  0.00  0.00    +0.000 A 
ENDROOT
BRANCH   4   7
ATOM      7  C   UNL     1       9.668  41.057  31.840  0.00  0.00    +0.000 C 
ATOM      8  C   UNL     1       8.923  40.413  32.971  0.00  0.00    +0.000 C 
ATOM      9  C   UNL     1       9.062  41.076  34.122  0.00  0.00    +0.000 C 
ATOM     10  C   UNL     1       9.918  42.293  33.974  0.00  0.00    +0.000 C 
ATOM     11  C   UNL     1      10.426  42.221  32.527  0.00  0.00    +0.000 C 
BRANCH  10  12
ATOM     12  C   UNL     1       9.077  43.527  34.240  0.00  0.00    +0.000 C 
ATOM     13  O   UNL     1       8.415  44.087  33.371  0.00  0.00    +0.000 OA
ENDBRANCH  10  12
ENDBRANCH   4   7
BRANCH   1  15
ATOM     14  C   UNL     1      14.337  37.040  29.974  0.00  0.00    +0.000 C 
ATOM     15  N   UNL     1      13.323  37.413  29.271  0.00  0.00    +0.000 NA
ENDBRANCH   1  15
BRANCH   3  16
ATOM     16  S   UNL     1       9.053  40.442  28.773  0.00  0.00    +0.000 S 
BRANCH  16  17
ATOM     17  C   UNL     1       7.572  39.401  29.171  0.00  0.00    +0.000 C 
ATOM     18  C   UNL     1       6.417  40.201  29.774  0.00  0.00    +0.000 C 
BRANCH  17  19
ATOM     19  C   UNL     1       7.112  38.761  27.855  0.00  0.00    +0.000 C 
ATOM     20  S   UNL     1       6.014  39.493  26.834  0.00  0.00    +0.000 S 
BRANCH  19  21
ATOM     21  N   UNL     1       7.677  37.568  27.494  0.00  0.00    +0.000 N 
ATOM     22  H   UNL     1       7.742  36.801  28.154  0.00  0.00    +0.000 HD
ATOM     23  H   UNL     1       7.759  37.344  26.509  0.00  0.00    +0.000 HD
ENDBRANCH  19  21
ENDBRANCH  17  19
ENDBRANCH  16  17
ENDBRANCH   3  16
TORSDOF 7
ENDMDL
MODEL 2
REMARK VINA RESULT:      -4.6      2.867      3.404
REMARK  Name = 
REMARK  8 active torsions:
REMARK  status: ('A' for Active; 'I' for Inactive)
REMARK    1  A    between atoms: N_2  and  C_3
REMARK    2  A    between atoms: C_5  and  S_6
REMARK    3  A    between atoms: S_6  and  C_7
REMARK    4  A    between atoms: C_7  and  C_8
REMARK    5  A    between atoms: C_7  and  C_9
REMARK    6  A    between atoms: C_9  and  N_10
REMARK    7  A    between atoms: C_12  and  C_13
REMARK    8  A    between atoms: C_16  and  C_17
REMARK                            x       y       z     vdW  Elec       q    Type
REMARK                         _______ _______ _______ _____ _____    ______ ____
ROOT
ATOM      1  C   UNL     1      11.137  39.725  30.291  0.00  0.00    +0.000 A 
ATOM      2  C   UNL     1      10.146  40.581  29.796  0.00  0.00    +0.000 A 
ATOM      3  C   UNL     1       9.615  41.634  30.564  0.00  0.00    +0.000 A 
ATOM      4  C   UNL     1      10.169  41.897  31.842  0.00  0.00    +0.000 A 
ATOM      5  C   UNL     1      11.189  41.046  32.318  0.00  0.00    +0.000 A 
ATOM      6  C   UNL     1      11.657  39.974  31.557  0.00  0.00    +0.000 A 
ENDROOT
BRANCH   4   7
ATOM      7  C   UNL     1       9.724  43.055  32.730  0.00  0.00    +0.000 C 
ATOM      8  C   UNL     1       8.785  42.627  33.819  0.00  0.00    +0.000 C 
ATOM      9  C   UNL     1       9.177  43.039  35.027  0.00  0.00    +0.000 C 
ATOM     10  C   UNL     1      10.446  43.829  34.971  0.00  0.00    +0.000 C 
ATOM     11  C   UNL     1      10.883  43.735  33.502  0.00  0.00    +0.000 C 
BRANCH  10  12
ATOM     12  C   UNL     1      10.165  45.253  35.410  0.00  0.00    +0.000 C 
ATOM     13  O   UNL     1      10.912  46.193  35.157  0.00  0.00    +0.000 OA
ENDBRANCH  10  12
ENDBRANCH   4   7
BRANCH   1  15
ATOM     14  C   UNL     1      12.753  38.085  29.986  0.00  0.00    +0.000 C 
ATOM     15  N   UNL     1      11.681  38.659  29.556  0.00  0.00    +0.000 NA
ENDBRANCH   1  15
BRANCH   3  16
ATOM     16  S   UNL     1       8.291  42.662  29.909  0.00  0.00    +0.000 S 
BRANCH  16  17
ATOM     17  C   UNL     1       8.586  42.753  28.081  0.00  0.00    +0.000 C 
ATOM     18  C   UNL     1       7.334  42.467  27.254  0.00  0.00    +0.000 C 
BRANCH  17  19
ATOM     19  C   UNL     1       9.079  44.174  27.781  0.00  0.00    +0.000 C 
ATOM     20  S   UNL     1      10.234  44.942  28.711  0.00  0.00    +0.000 S 
BRANCH  19  21
ATOM     21  N   UNL     1       8.582  44.802  26.671  0.00  0.00    +0.000 N 
ATOM     22  H   UNL     1       8.010  44.299  26.001  0.00  0.00    +0.000 HD
ATOM     23  H   UNL     1       8.529  45.813  26.663  0.00  0.00    +0.000 HD
ENDBRANCH  19  21
ENDBRANCH  17  19
ENDBRANCH  16  17
ENDBRANCH   3  16
TORSDOF 7
ENDMDL
MODEL 3
REMARK VINA RESULT:      -4.1      2.411      3.249
REMARK  Name = 
REMARK  8 active torsions:
REMARK  status: ('A' for Active; 'I' for Inactive)
REMARK    1  A    between atoms: N_2  and  C_3
REMARK    2  A    between atoms: C_5  and  S_6
REMARK    3  A    between atoms: S_6  and  C_7
REMARK    4  A    between atoms: C_7  and  C_8
REMARK    5  A    between atoms: C_7  and  C_9
REMARK    6  A    between atoms: C_9  and  N_10
REMARK    7  A    between atoms: C_12  and  C_13
REMARK    8  A    between atoms: C_16  and  C_17
REMARK                            x       y       z     vdW  Elec       q    Type
REMARK                         _______ _______ _______ _____ _____    ______ ____
ROOT
ATOM      1  C   UNL     1      10.817  39.956  31.286  0.00  0.00    +0.000 A 
ATOM      2  C   UNL     1       9.637  40.520  30.787  0.00  0.00    +0.000 A 
ATOM      3  C   UNL     1       8.874  41.439  31.531  0.00  0.00    +0.000 A 
ATOM      4  C   UNL     1       9.366  41.880  32.785  0.00  0.00    +0.000 A 
ATOM      5  C   UNL     1      10.572  41.327  33.265  0.00  0.00    +0.000 A 
ATOM      6  C   UNL     1      11.279  40.374  32.530  0.00  0.00    +0.000 A 
ENDROOT
BRANCH   4   7
ATOM      7  C   UNL     1       8.662  42.927  33.644  0.00  0.00    +0.000 C 
ATOM      8  C   UNL     1       8.594  42.542  35.093  0.00  0.00    +0.000 C 
ATOM      9  C   UNL     1       9.052  43.502  35.901  0.00  0.00    +0.000 C 
ATOM     10  C   UNL     1       9.502  44.711  35.145  0.00  0.00    +0.000 C 
ATOM     11  C   UNL     1       9.378  44.301  33.671  0.00  0.00    +0.000 C 
BRANCH  10  12
ATOM     12  C   UNL     1       8.610  45.883  35.506  0.00  0.00    +0.000 C 
ATOM     13  O   UNL     1       8.440  46.849  34.768  0.00  0.00    +0.000 OA
ENDBRANCH  10  12
ENDBRANCH   4   7
BRANCH   1  15
ATOM     14  C   UNL     1      11.418  38.904  29.304  0.00  0.00    +0.000 C 
ATOM     15  N   UNL     1      11.596  39.028  30.575  0.00  0.00    +0.000 NA
ENDBRANCH   1  15
BRANCH   3  16
ATOM     16  S   UNL     1       7.328  42.083  30.875  0.00  0.00    +0.000 S 
BRANCH  16  17
ATOM     17  C   UNL     1       7.811  43.344  29.604  0.00  0.00    +0.000 C 
ATOM     18  C   UNL     1       9.084  44.107  29.966  0.00  0.00    +0.000 C 
BRANCH  17  19
ATOM     19  C   UNL     1       8.029  42.587  28.288  0.00  0.00    +0.000 C 
ATOM     20  S   UNL     1       6.949  41.451  27.713  0.00  0.00    +0.000 S 
BRANCH  19  21
ATOM     21  N   UNL     1       9.130  42.907  27.542  0.00  0.00    +0.000 N 
ATOM     22  H   UNL     1       9.342  43.873  27.314  0.00  0.00    +0.000 HD
ATOM     23  H   UNL     1       9.884  42.235  27.467  0.00  0.00    +0.000 HD
ENDBRANCH  19  21
ENDBRANCH  17  19
ENDBRANCH  16  17
ENDBRANCH   3  16
TORSDOF 7
ENDMDL
MODEL 4
REMARK VINA RESULT:      -4.1      4.988      6.414
REMARK  Name = 
REMARK  8 active torsions:
REMARK  status: ('A' for Active; 'I' for Inactive)
REMARK    1  A    between atoms: N_2  and  C_3
REMARK    2  A    between atoms: C_5  and  S_6
REMARK    3  A    between atoms: S_6  and  C_7
REMARK    4  A    between atoms: C_7  and  C_8
REMARK    5  A    between atoms: C_7  and  C_9
REMARK    6  A    between atoms: C_9  and  N_10
REMARK    7  A    between atoms: C_12  and  C_13
REMARK    8  A    between atoms: C_16  and  C_17
REMARK                            x       y       z     vdW  Elec       q    Type
REMARK                         _______ _______ _______ _____ _____    ______ ____
ROOT
ATOM      1  C   UNL     1       6.285  43.356  31.949  0.00  0.00    +0.000 A 
ATOM      2  C   UNL     1       7.241  43.167  30.945  0.00  0.00    +0.000 A 
ATOM      3  C   UNL     1       8.601  43.474  31.138  0.00  0.00    +0.000 A 
ATOM      4  C   UNL     1       9.032  43.894  32.422  0.00  0.00    +0.000 A 
ATOM      5  C   UNL     1       8.063  44.051  33.436  0.00  0.00    +0.000 A 
ATOM      6  C   UNL     1       6.713  43.794  33.199  0.00  0.00    +0.000 A 
ENDROOT
BRANCH   4   7
ATOM      7  C   UNL     1      10.490  44.183  32.767  0.00  0.00    +0.000 C 
ATOM      8  C   UNL     1      10.777  45.649  32.905  0.00  0.00    +0.000 C 
ATOM      9  C   UNL     1      11.390  45.946  34.054  0.00  0.00    +0.000 C 
ATOM     10  C   UNL     1      11.636  44.734  34.894  0.00  0.00    +0.000 C 
ATOM     11  C   UNL     1      10.939  43.599  34.130  0.00  0.00    +0.000 C 
BRANCH  10  12
ATOM     12  C   UNL     1      13.132  44.518  35.029  0.00  0.00    +0.000 C 
ATOM     13  O   UNL     1      13.713  43.540  34.569  0.00  0.00    +0.000 OA
ENDBRANCH  10  12
ENDBRANCH   4   7
BRANCH   1  15
ATOM     14  C   UNL     1       4.486  42.729  30.621  0.00  0.00    +0.000 C 
ATOM     15  N   UNL     1       4.919  43.071  31.786  0.00  0.00    +0.000 NA
ENDBRANCH   1  15
BRANCH   3  16
ATOM     16  S   UNL     1       9.780  43.281  29.793  0.00  0.00    +0.000 S 
BRANCH  16  17
ATOM     17  C   UNL     1      10.097  44.994  29.156  0.00  0.00    +0.000 C 
ATOM     18  C   UNL     1      11.583  45.335  29.058  0.00  0.00    +0.000 C 
BRANCH  17  19
ATOM     19  C   UNL     1       9.465  45.073  27.761  0.00  0.00    +0.000 C 
ATOM     20  S   UNL     1       8.567  46.385  27.252  0.00  0.00    +0.000 S 
BRANCH  19  21
ATOM     21  N   UNL     1       9.703  44.043  26.892  0.00  0.00    +0.000 N 
ATOM     22  H   UNL     1       9.617  44.175  25.891  0.00  0.00    +0.000 HD
ATOM     23  H   UNL     1      10.242  43.247  27.212  0.00  0.00    +0.000 HD
ENDBRANCH  19  21
ENDBRANCH  17  19
ENDBRANCH  16  17
ENDBRANCH   3  16
TORSDOF 7
ENDMDL
MODEL 5
REMARK VINA RESULT:      -3.1      5.312      7.892
REMARK  Name = 
REMARK  8 active torsions:
REMARK  status: ('A' for Active; 'I' for Inactive)
REMARK    1  A    between atoms: N_2  and  C_3
REMARK    2  A    between atoms: C_5  and  S_6
REMARK    3  A    between atoms: S_6  and  C_7
REMARK    4  A    between atoms: C_7  and  C_8
REMARK    5  A    between atoms: C_7  and  C_9
REMARK    6  A    between atoms: C_9  and  N_10
REMARK    7  A    between atoms: C_12  and  C_13
REMARK    8  A    between atoms: C_16  and  C_17
REMARK                            x       y       z     vdW  Elec       q    Type
REMARK                         _______ _______ _______ _____ _____    ______ ____
ROOT
ATOM      1  C   UNL     1       5.252  42.687  32.723  0.00  0.00    +0.000 A 
ATOM      2  C   UNL     1       5.835  43.706  33.484  0.00  0.00    +0.000 A 
ATOM      3  C   UNL     1       7.149  44.155  33.252  0.00  0.00    +0.000 A 
ATOM      4  C   UNL     1       7.868  43.627  32.151  0.00  0.00    +0.000 A 
ATOM      5  C   UNL     1       7.258  42.621  31.371  0.00  0.00    +0.000 A 
ATOM      6  C   UNL     1       5.975  42.155  31.660  0.00  0.00    +0.000 A 
ENDROOT
BRANCH   4   7
ATOM      7  C   UNL     1       9.268  44.091  31.760  0.00  0.00    +0.000 C 
ATOM      8  C   UNL     1      10.280  42.984  31.793  0.00  0.00    +0.000 C 
ATOM      9  C   UNL     1      10.977  42.891  30.657  0.00  0.00    +0.000 C 
ATOM     10  C   UNL     1      10.569  43.925  29.656  0.00  0.00    +0.000 C 
ATOM     11  C   UNL     1       9.369  44.627  30.310  0.00  0.00    +0.000 C 
BRANCH  10  12
ATOM     12  C   UNL     1      11.734  44.863  29.408  0.00  0.00    +0.000 C 
ATOM     13  O   UNL     1      12.226  45.568  30.284  0.00  0.00    +0.000 OA
ENDBRANCH  10  12
ENDBRANCH   4   7
BRANCH   1  15
ATOM     14  C   UNL     1       3.161  42.860  33.719  0.00  0.00    +0.000 C 
ATOM     15  N   UNL     1       3.948  42.207  32.934  0.00  0.00    +0.000 NA
ENDBRANCH   1  15
BRANCH   3  16
ATOM     16  S   UNL     1       7.879  45.419  34.304  0.00  0.00    +0.000 S 
BRANCH  16  17
ATOM     17  C   UNL     1       9.000  44.513  35.470  0.00  0.00    +0.000 C 
ATOM     18  C   UNL     1      10.149  45.374  35.994  0.00  0.00    +0.000 C 
BRANCH  17  19
ATOM     19  C   UNL     1       8.135  44.050  36.649  0.00  0.00    +0.000 C 
ATOM     20  S   UNL     1       7.948  42.440  37.051  0.00  0.00    +0.000 S 
BRANCH  19  21
ATOM     21  N   UNL     1       7.545  45.011  37.423  0.00  0.00    +0.000 N 
ATOM     22  H   UNL     1       8.026  45.401  38.226  0.00  0.00    +0.000 HD
ATOM     23  H   UNL     1       6.771  45.542  37.041  0.00  0.00    +0.000 HD
ENDBRANCH  19  21
ENDBRANCH  17  19
ENDBRANCH  16  17
ENDBRANCH   3  16
TORSDOF 7
ENDMDL
