MODEL 1
REMARK VINA RESULT:      -7.1      0.000      0.000
REMARK  Name = 
REMARK  4 active torsions:
REMARK  status: ('A' for Active; 'I' for Inactive)
REMARK    1  A    between atoms: C_8  and  C_9
REMARK    2  A    between atoms: C_14  and  C_15
REMARK    3  A    between atoms: C_20  and  C_21
REMARK    4  A    between atoms: C_26  and  C_27
REMARK                            x       y       z     vdW  Elec       q    Type
REMARK                         _______ _______ _______ _____ _____    ______ ____
ROOT
ATOM      1  C   UNL     1     -34.870  -3.433  14.741  0.00  0.00    +0.000 A 
ATOM      2  C   UNL     1     -34.452  -4.706  14.282  0.00  0.00    +0.000 A 
ATOM      3  C   UNL     1     -34.266  -5.780  15.150  0.00  0.00    +0.000 A 
ATOM      4  C   UNL     1     -34.440  -5.603  16.512  0.00  0.00    +0.000 A 
ATOM      5  C   UNL     1     -34.782  -4.348  17.010  0.00  0.00    +0.000 A 
ATOM      6  C   UNL     1     -35.000  -3.233  16.157  0.00  0.00    +0.000 A 
ENDROOT
BRANCH   1  12
ATOM      7  C   UNL     1     -35.554   1.886  10.971  0.00  0.00    +0.000 A 
ATOM      8  C   UNL     1     -34.621   2.095  11.999  0.00  0.00    +0.000 A 
ATOM      9  C   UNL     1     -34.280   1.070  12.896  0.00  0.00    +0.000 A 
ATOM     10  C   UNL     1     -34.866  -0.198  12.821  0.00  0.00    +0.000 A 
ATOM     11  N   UNL     1     -34.385  -1.243  13.649  0.00  0.00    +0.000 N 
ATOM     12  C   UNL     1     -35.278  -2.407  13.681  0.00  0.00    +0.000 C 
ATOM     13  C   UNL     1     -35.365  -2.892  12.166  0.00  0.00    +0.000 C 
ATOM     14  C   UNL     1     -36.176  -4.159  11.889  0.00  0.00    +0.000 C 
ATOM     15  C   UNL     1     -37.553  -3.646  12.178  0.00  0.00    +0.000 C 
ATOM     16  C   UNL     1     -37.600  -2.326  11.940  0.00  0.00    +0.000 C 
ATOM     17  C   UNL     1     -36.237  -1.842  11.456  0.00  0.00    +0.000 C 
ATOM     18  C   UNL     1     -35.789  -0.438  11.768  0.00  0.00    +0.000 A 
ATOM     19  C   UNL     1     -36.151   0.614  10.887  0.00  0.00    +0.000 A 
ATOM     20  H   UNL     1     -34.089  -0.915  14.561  0.00  0.00    +0.000 HD
BRANCH   7  28
ATOM     21  C   UNL     1     -37.499   7.450   9.360  0.00  0.00    +0.000 A 
ATOM     22  C   UNL     1     -36.649   7.703   8.292  0.00  0.00    +0.000 A 
ATOM     23  C   UNL     1     -35.672   6.769   7.957  0.00  0.00    +0.000 A 
ATOM     24  C   UNL     1     -35.556   5.557   8.664  0.00  0.00    +0.000 A 
ATOM     25  C   UNL     1     -36.396   5.298   9.748  0.00  0.00    +0.000 A 
ATOM     26  C   UNL     1     -37.357   6.273  10.099  0.00  0.00    +0.000 A 
ATOM     27  N   UNL     1     -36.182   4.202  10.588  0.00  0.00    +0.000 N 
ATOM     28  C   UNL     1     -35.781   2.967   9.903  0.00  0.00    +0.000 C 
ATOM     29  C   UNL     1     -34.585   3.171   8.960  0.00  0.00    +0.000 C 
ATOM     30  C   UNL     1     -34.671   2.248   7.732  0.00  0.00    +0.000 C 
ATOM     31  C   UNL     1     -33.964   3.027   6.659  0.00  0.00    +0.000 C 
ATOM     32  C   UNL     1     -34.163   4.338   6.888  0.00  0.00    +0.000 C 
ATOM     33  C   UNL     1     -34.438   4.593   8.370  0.00  0.00    +0.000 C 
ATOM     34  H   UNL     1     -36.979   4.033  11.196  0.00  0.00    +0.000 HD
ENDBRANCH   7  28
ENDBRANCH   1  12
BRANCH   6  35
ATOM     35  C   UNL     1     -35.391  -1.910  16.865  0.00  0.00    +0.000 C 
ATOM     36  N   UNL     1     -34.681  -0.796  16.217  0.00  0.00    +0.000 N 
ATOM     37  C   UNL     1     -35.038   0.527  16.461  0.00  0.00    +0.000 A 
ATOM     38  C   UNL     1     -34.201   1.590  16.094  0.00  0.00    +0.000 A 
ATOM     39  C   UNL     1     -34.583   2.931  16.275  0.00  0.00    +0.000 A 
ATOM     40  C   UNL     1     -35.836   3.253  16.813  0.00  0.00    +0.000 A 
ATOM     41  C   UNL     1     -36.672   2.193  17.173  0.00  0.00    +0.000 A 
ATOM     42  C   UNL     1     -36.288   0.846  17.002  0.00  0.00    +0.000 A 
ATOM     43  C   UNL     1     -37.285  -0.227  17.306  0.00  0.00    +0.000 C 
ATOM     44  C   UNL     1     -37.538  -0.510  18.760  0.00  0.00    +0.000 C 
ATOM     45  C   UNL     1     -37.848  -1.802  18.932  0.00  0.00    +0.000 C 
ATOM     46  C   UNL     1     -37.789  -2.544  17.626  0.00  0.00    +0.000 C 
ATOM     47  C   UNL     1     -36.927  -1.621  16.758  0.00  0.00    +0.000 C 
ATOM     48  H   UNL     1     -33.761  -0.988  15.836  0.00  0.00    +0.000 HD
BRANCH  40  49
ATOM     49  C   UNL     1     -36.309   4.678  17.014  0.00  0.00    +0.000 C 
ATOM     50  N   UNL     1     -35.787   5.172  18.292  0.00  0.00    +0.000 N 
ATOM     51  C   UNL     1     -36.186   6.477  18.628  0.00  0.00    +0.000 A 
ATOM     52  C   UNL     1     -36.087   6.900  19.960  0.00  0.00    +0.000 A 
ATOM     53  C   UNL     1     -36.370   8.219  20.321  0.00  0.00    +0.000 A 
ATOM     54  C   UNL     1     -36.738   9.142  19.347  0.00  0.00    +0.000 A 
ATOM     55  C   UNL     1     -36.814   8.745  18.014  0.00  0.00    +0.000 A 
ATOM     56  C   UNL     1     -36.522   7.420  17.641  0.00  0.00    +0.000 A 
ATOM     57  C   UNL     1     -36.502   7.052  16.182  0.00  0.00    +0.000 C 
ATOM     58  C   UNL     1     -37.851   6.941  15.513  0.00  0.00    +0.000 C 
ATOM     59  C   UNL     1     -37.844   5.979  14.581  0.00  0.00    +0.000 C 
ATOM     60  C   UNL     1     -36.510   5.300  14.522  0.00  0.00    +0.000 C 
ATOM     61  C   UNL     1     -35.899   5.661  15.887  0.00  0.00    +0.000 C 
ATOM     62  H   UNL     1     -35.958   4.516  19.051  0.00  0.00    +0.000 HD
ENDBRANCH  40  49
ENDBRANCH   6  35
TORSDOF 4
ENDMDL
