MODEL 1
REMARK VINA RESULT:      -7.2      0.000      0.000
REMARK  Name = 
REMARK  8 active torsions:
REMARK  status: ('A' for Active; 'I' for Inactive)
REMARK    1  A    between atoms: C_1  and  N_2
REMARK    2  A    between atoms: N_2  and  C_3
REMARK    3  A    between atoms: C_3  and  C_4
REMARK    4  A    between atoms: C_5  and  C_6
REMARK    5  A    between atoms: C_6  and  C_7
REMARK    6  A    between atoms: C_15  and  C_16
REMARK    7  A    between atoms: C_20  and  C_21
REMARK    8  A    between atoms: C_26  and  C_27
REMARK                            x       y       z     vdW  Elec       q    Type
REMARK                         _______ _______ _______ _____ _____    ______ ____
ROOT
ATOM      1  C   UNL     1      10.414  40.948  32.942  0.00  0.00    +0.000 A 
ATOM      2  C   UNL     1       9.233  40.814  33.701  0.00  0.00    +0.000 A 
ATOM      3  C   UNL     1       8.863  41.874  34.566  0.00  0.00    +0.000 A 
ATOM      4  C   UNL     1       9.645  43.029  34.710  0.00  0.00    +0.000 A 
ATOM      5  C   UNL     1      10.803  43.174  33.955  0.00  0.00    +0.000 A 
ATOM      6  C   UNL     1      11.175  42.118  33.109  0.00  0.00    +0.000 A 
ENDROOT
BRANCH   5   7
ATOM      7  C   UNL     1      11.718  44.379  33.940  0.00  0.00    +0.000 C 
ATOM      8  C   UNL     1      11.831  44.917  35.363  0.00  0.00    +0.000 C 
ATOM      9  C   UNL     1      10.791  46.012  35.389  0.00  0.00    +0.000 C 
ATOM     10  O   UNL     1      10.674  46.519  34.055  0.00  0.00    +0.000 OA
ATOM     11  C   UNL     1      11.432  45.667  33.156  0.00  0.00    +0.000 C 
BRANCH  11  12
ATOM     12  C   UNL     1      10.797  45.717  31.738  0.00  0.00    +0.000 C 
ATOM     13  C   UNL     1      11.877  45.165  30.752  0.00  0.00    +0.000 C 
ATOM     14  C   UNL     1      11.435  45.128  29.293  0.00  0.00    +0.000 C 
ATOM     15  C   UNL     1      10.137  44.361  29.131  0.00  0.00    +0.000 C 
ATOM     16  C   UNL     1       9.063  44.955  30.020  0.00  0.00    +0.000 C 
ATOM     17  C   UNL     1       9.463  44.936  31.510  0.00  0.00    +0.000 C 
ATOM     18  C   UNL     1       8.245  45.458  32.271  0.00  0.00    +0.000 C 
ENDBRANCH  11  12
ENDBRANCH   5   7
BRANCH   1  19
ATOM     19  C   UNL     1      10.978  39.926  31.977  0.00  0.00    +0.000 C 
BRANCH  19  21
ATOM     20  C   UNL     1      12.747  38.270  31.504  0.00  0.00    +0.000 C 
ATOM     21  N   UNL     1      12.047  39.067  32.503  0.00  0.00    +0.000 NA
ATOM     22  H   UNL     1      12.727  39.676  32.959  0.00  0.00    +0.000 HD
ENDBRANCH  19  21
ENDBRANCH   1  19
BRANCH   2  23
ATOM     23  C   UNL     1       8.391  39.552  33.722  0.00  0.00    +0.000 C 
BRANCH  23  24
ATOM     24  C   UNL     1       8.089  38.944  35.074  0.00  0.00    +0.000 A 
ATOM     25  C   UNL     1       6.797  38.961  35.593  0.00  0.00    +0.000 A 
ATOM     26  C   UNL     1       6.531  38.304  36.790  0.00  0.00    +0.000 A 
ATOM     27  C   UNL     1       7.559  37.639  37.443  0.00  0.00    +0.000 A 
ATOM     28  C   UNL     1       8.817  37.665  36.866  0.00  0.00    +0.000 A 
ATOM     29  N   UNL     1       9.105  38.298  35.706  0.00  0.00    +0.000 NA
ENDBRANCH  23  24
ENDBRANCH   2  23
TORSDOF 6
ENDMDL
MODEL 2
REMARK VINA RESULT:      -6.9      1.830      4.425
REMARK  Name = 
REMARK  8 active torsions:
REMARK  status: ('A' for Active; 'I' for Inactive)
REMARK    1  A    between atoms: C_1  and  N_2
REMARK    2  A    between atoms: N_2  and  C_3
REMARK    3  A    between atoms: C_3  and  C_4
REMARK    4  A    between atoms: C_5  and  C_6
REMARK    5  A    between atoms: C_6  and  C_7
REMARK    6  A    between atoms: C_15  and  C_16
REMARK    7  A    between atoms: C_20  and  C_21
REMARK    8  A    between atoms: C_26  and  C_27
REMARK                            x       y       z     vdW  Elec       q    Type
REMARK                         _______ _______ _______ _____ _____    ______ ____
ROOT
ATOM      1  C   UNL     1      10.453  41.596  32.808  0.00  0.00    +0.000 A 
ATOM      2  C   UNL     1      10.739  41.463  31.433  0.00  0.00    +0.000 A 
ATOM      3  C   UNL     1      11.206  42.600  30.728  0.00  0.00    +0.000 A 
ATOM      4  C   UNL     1      11.365  43.849  31.345  0.00  0.00    +0.000 A 
ATOM      5  C   UNL     1      11.098  43.984  32.703  0.00  0.00    +0.000 A 
ATOM      6  C   UNL     1      10.623  42.862  33.396  0.00  0.00    +0.000 A 
ENDROOT
BRANCH   5   7
ATOM      7  C   UNL     1      11.282  45.237  33.531  0.00  0.00    +0.000 C 
ATOM      8  C   UNL     1      11.118  44.870  35.002  0.00  0.00    +0.000 C 
ATOM      9  C   UNL     1       9.668  45.199  35.270  0.00  0.00    +0.000 C 
ATOM     10  O   UNL     1       9.303  46.261  34.380  0.00  0.00    +0.000 OA
ATOM     11  C   UNL     1      10.381  46.476  33.431  0.00  0.00    +0.000 C 
BRANCH  11  12
ATOM     12  C   UNL     1       9.797  47.039  32.105  0.00  0.00    +0.000 C 
ATOM     13  C   UNL     1      11.022  47.469  31.233  0.00  0.00    +0.000 C 
ATOM     14  C   UNL     1      10.650  48.049  29.871  0.00  0.00    +0.000 C 
ATOM     15  C   UNL     1       9.759  47.100  29.094  0.00  0.00    +0.000 C 
ATOM     16  C   UNL     1       8.526  46.756  29.905  0.00  0.00    +0.000 C 
ATOM     17  C   UNL     1       8.880  46.103  31.256  0.00  0.00    +0.000 C 
ATOM     18  C   UNL     1       7.544  45.720  31.893  0.00  0.00    +0.000 C 
ENDBRANCH  11  12
ENDBRANCH   5   7
BRANCH   1  19
ATOM     19  C   UNL     1       9.937  40.506  33.723  0.00  0.00    +0.000 C 
BRANCH  19  21
ATOM     20  C   UNL     1       8.170  40.049  35.386  0.00  0.00    +0.000 C 
ATOM     21  N   UNL     1       8.513  40.583  34.073  0.00  0.00    +0.000 NA
ATOM     22  H   UNL     1       8.248  41.568  34.050  0.00  0.00    +0.000 HD
ENDBRANCH  19  21
ENDBRANCH   1  19
BRANCH   2  23
ATOM     23  C   UNL     1      10.471  40.196  30.642  0.00  0.00    +0.000 C 
BRANCH  23  24
ATOM     24  C   UNL     1      11.643  39.270  30.401  0.00  0.00    +0.000 A 
ATOM     25  C   UNL     1      12.339  38.706  31.466  0.00  0.00    +0.000 A 
ATOM     26  C   UNL     1      13.344  37.778  31.212  0.00  0.00    +0.000 A 
ATOM     27  C   UNL     1      13.631  37.428  29.901  0.00  0.00    +0.000 A 
ATOM     28  C   UNL     1      12.896  38.029  28.894  0.00  0.00    +0.000 A 
ATOM     29  N   UNL     1      11.916  38.936  29.111  0.00  0.00    +0.000 NA
ENDBRANCH  23  24
ENDBRANCH   2  23
TORSDOF 6
ENDMDL
MODEL 3
REMARK VINA RESULT:      -6.8      3.485      5.096
REMARK  Name = 
REMARK  8 active torsions:
REMARK  status: ('A' for Active; 'I' for Inactive)
REMARK    1  A    between atoms: C_1  and  N_2
REMARK    2  A    between atoms: N_2  and  C_3
REMARK    3  A    between atoms: C_3  and  C_4
REMARK    4  A    between atoms: C_5  and  C_6
REMARK    5  A    between atoms: C_6  and  C_7
REMARK    6  A    between atoms: C_15  and  C_16
REMARK    7  A    between atoms: C_20  and  C_21
REMARK    8  A    between atoms: C_26  and  C_27
REMARK                            x       y       z     vdW  Elec       q    Type
REMARK                         _______ _______ _______ _____ _____    ______ ____
ROOT
ATOM      1  C   UNL     1      10.635  40.118  30.285  0.00  0.00    +0.000 A 
ATOM      2  C   UNL     1       9.358  40.415  29.765  0.00  0.00    +0.000 A 
ATOM      3  C   UNL     1       8.738  41.630  30.150  0.00  0.00    +0.000 A 
ATOM      4  C   UNL     1       9.340  42.524  31.046  0.00  0.00    +0.000 A 
ATOM      5  C   UNL     1      10.604  42.245  31.553  0.00  0.00    +0.000 A 
ATOM      6  C   UNL     1      11.210  41.036  31.182  0.00  0.00    +0.000 A 
ENDROOT
BRANCH   5   7
ATOM      7  C   UNL     1      11.418  43.131  32.471  0.00  0.00    +0.000 C 
ATOM      8  C   UNL     1      11.354  42.552  33.881  0.00  0.00    +0.000 C 
ATOM      9  C   UNL     1      10.232  43.340  34.515  0.00  0.00    +0.000 C 
ATOM     10  O   UNL     1      10.201  44.622  33.878  0.00  0.00    +0.000 OA
ATOM     11  C   UNL     1      11.105  44.609  32.741  0.00  0.00    +0.000 C 
BRANCH  11  12
ATOM     12  C   UNL     1      10.603  45.617  31.670  0.00  0.00    +0.000 C 
ATOM     13  C   UNL     1      10.232  46.927  32.438  0.00  0.00    +0.000 C 
ATOM     14  C   UNL     1       9.717  48.053  31.546  0.00  0.00    +0.000 C 
ATOM     15  C   UNL     1      10.695  48.359  30.428  0.00  0.00    +0.000 C 
ATOM     16  C   UNL     1      10.984  47.107  29.627  0.00  0.00    +0.000 C 
ATOM     17  C   UNL     1      11.572  45.978  30.499  0.00  0.00    +0.000 C 
ATOM     18  C   UNL     1      11.907  44.842  29.534  0.00  0.00    +0.000 C 
ENDBRANCH  11  12
ENDBRANCH   5   7
BRANCH   1  19
ATOM     19  C   UNL     1      11.448  38.872  30.003  0.00  0.00    +0.000 C 
BRANCH  19  21
ATOM     20  C   UNL     1      13.187  37.819  28.603  0.00  0.00    +0.000 C 
ATOM     21  N   UNL     1      12.159  38.846  28.719  0.00  0.00    +0.000 NA
ATOM     22  H   UNL     1      11.463  38.685  27.991  0.00  0.00    +0.000 HD
ENDBRANCH  19  21
ENDBRANCH   1  19
BRANCH   2  23
ATOM     23  C   UNL     1       8.563  39.455  28.899  0.00  0.00    +0.000 C 
BRANCH  23  24
ATOM     24  C   UNL     1       7.292  39.980  28.269  0.00  0.00    +0.000 A 
ATOM     25  C   UNL     1       6.049  39.701  28.830  0.00  0.00    +0.000 A 
ATOM     26  C   UNL     1       4.908  40.284  28.288  0.00  0.00    +0.000 A 
ATOM     27  C   UNL     1       5.031  41.137  27.200  0.00  0.00    +0.000 A 
ATOM     28  C   UNL     1       6.300  41.367  26.698  0.00  0.00    +0.000 A 
ATOM     29  N   UNL     1       7.426  40.812  27.203  0.00  0.00    +0.000 NA
ENDBRANCH  23  24
ENDBRANCH   2  23
TORSDOF 6
ENDMDL
MODEL 4
REMARK VINA RESULT:      -6.2      2.595      7.726
REMARK  Name = 
REMARK  8 active torsions:
REMARK  status: ('A' for Active; 'I' for Inactive)
REMARK    1  A    between atoms: C_1  and  N_2
REMARK    2  A    between atoms: N_2  and  C_3
REMARK    3  A    between atoms: C_3  and  C_4
REMARK    4  A    between atoms: C_5  and  C_6
REMARK    5  A    between atoms: C_6  and  C_7
REMARK    6  A    between atoms: C_15  and  C_16
REMARK    7  A    between atoms: C_20  and  C_21
REMARK    8  A    between atoms: C_26  and  C_27
REMARK                            x       y       z     vdW  Elec       q    Type
REMARK                         _______ _______ _______ _____ _____    ______ ____
ROOT
ATOM      1  C   UNL     1      10.452  41.125  32.707  0.00  0.00    +0.000 A 
ATOM      2  C   UNL     1      10.680  42.218  33.569  0.00  0.00    +0.000 A 
ATOM      3  C   UNL     1       9.710  42.511  34.559  0.00  0.00    +0.000 A 
ATOM      4  C   UNL     1       8.528  41.769  34.689  0.00  0.00    +0.000 A 
ATOM      5  C   UNL     1       8.302  40.682  33.853  0.00  0.00    +0.000 A 
ATOM      6  C   UNL     1       9.256  40.401  32.864  0.00  0.00    +0.000 A 
ENDROOT
BRANCH   5   7
ATOM      7  C   UNL     1       7.117  39.742  33.906  0.00  0.00    +0.000 C 
ATOM      8  C   UNL     1       5.987  40.343  33.078  0.00  0.00    +0.000 C 
ATOM      9  C   UNL     1       5.155  41.058  34.117  0.00  0.00    +0.000 C 
ATOM     10  O   UNL     1       5.324  40.355  35.353  0.00  0.00    +0.000 OA
ATOM     11  C   UNL     1       6.374  39.364  35.195  0.00  0.00    +0.000 C 
BRANCH  11  12
ATOM     12  C   UNL     1       7.057  39.112  36.568  0.00  0.00    +0.000 C 
ATOM     13  C   UNL     1       6.822  40.401  37.420  0.00  0.00    +0.000 C 
ATOM     14  C   UNL     1       7.421  40.345  38.823  0.00  0.00    +0.000 C 
ATOM     15  C   UNL     1       6.938  39.121  39.577  0.00  0.00    +0.000 C 
ATOM     16  C   UNL     1       7.249  37.864  38.792  0.00  0.00    +0.000 C 
ATOM     17  C   UNL     1       6.593  37.871  37.396  0.00  0.00    +0.000 C 
ATOM     18  C   UNL     1       6.906  36.505  36.785  0.00  0.00    +0.000 C 
ENDBRANCH  11  12
ENDBRANCH   5   7
BRANCH   1  19
ATOM     19  C   UNL     1      11.359  40.664  31.586  0.00  0.00    +0.000 C 
BRANCH  19  21
ATOM     20  C   UNL     1       9.939  42.060  30.127  0.00  0.00    +0.000 C 
ATOM     21  N   UNL     1      11.211  41.372  30.308  0.00  0.00    +0.000 NA
ATOM     22  H   UNL     1      11.959  42.065  30.258  0.00  0.00    +0.000 HD
ENDBRANCH  19  21
ENDBRANCH   1  19
BRANCH   2  23
ATOM     23  C   UNL     1      11.857  43.165  33.423  0.00  0.00    +0.000 C 
BRANCH  23  24
ATOM     24  C   UNL     1      11.545  44.619  33.142  0.00  0.00    +0.000 A 
ATOM     25  C   UNL     1      11.224  45.044  31.855  0.00  0.00    +0.000 A 
ATOM     26  C   UNL     1      10.841  46.365  31.648  0.00  0.00    +0.000 A 
ATOM     27  C   UNL     1      10.782  47.235  32.728  0.00  0.00    +0.000 A 
ATOM     28  C   UNL     1      11.115  46.739  33.977  0.00  0.00    +0.000 A 
ATOM     29  N   UNL     1      11.493  45.461  34.208  0.00  0.00    +0.000 NA
ENDBRANCH  23  24
ENDBRANCH   2  23
TORSDOF 6
ENDMDL
MODEL 5
REMARK VINA RESULT:      -6.1      2.180      4.392
REMARK  Name = 
REMARK  8 active torsions:
REMARK  status: ('A' for Active; 'I' for Inactive)
REMARK    1  A    between atoms: C_1  and  N_2
REMARK    2  A    between atoms: N_2  and  C_3
REMARK    3  A    between atoms: C_3  and  C_4
REMARK    4  A    between atoms: C_5  and  C_6
REMARK    5  A    between atoms: C_6  and  C_7
REMARK    6  A    between atoms: C_15  and  C_16
REMARK    7  A    between atoms: C_20  and  C_21
REMARK    8  A    between atoms: C_26  and  C_27
REMARK                            x       y       z     vdW  Elec       q    Type
REMARK                         _______ _______ _______ _____ _____    ______ ____
ROOT
ATOM      1  C   UNL     1       9.674  42.187  34.233  0.00  0.00    +0.000 A 
ATOM      2  C   UNL     1      10.782  41.640  33.553  0.00  0.00    +0.000 A 
ATOM      3  C   UNL     1      11.869  42.494  33.239  0.00  0.00    +0.000 A 
ATOM      4  C   UNL     1      11.863  43.859  33.557  0.00  0.00    +0.000 A 
ATOM      5  C   UNL     1      10.781  44.402  34.240  0.00  0.00    +0.000 A 
ATOM      6  C   UNL     1       9.700  43.559  34.538  0.00  0.00    +0.000 A 
ENDROOT
BRANCH   5   7
ATOM      7  C   UNL     1      10.648  45.832  34.717  0.00  0.00    +0.000 C 
ATOM      8  C   UNL     1       9.552  45.887  35.776  0.00  0.00    +0.000 C 
ATOM      9  C   UNL     1       8.336  46.296  34.979  0.00  0.00    +0.000 C 
ATOM     10  O   UNL     1       8.798  47.076  33.870  0.00  0.00    +0.000 OA
ATOM     11  C   UNL     1      10.247  47.006  33.813  0.00  0.00    +0.000 C 
BRANCH  11  12
ATOM     12  C   UNL     1      10.716  47.191  32.342  0.00  0.00    +0.000 C 
ATOM     13  C   UNL     1       9.757  46.323  31.463  0.00  0.00    +0.000 C 
ATOM     14  C   UNL     1      10.054  46.378  29.968  0.00  0.00    +0.000 C 
ATOM     15  C   UNL     1      10.079  47.808  29.464  0.00  0.00    +0.000 C 
ATOM     16  C   UNL     1      11.077  48.626  30.257  0.00  0.00    +0.000 C 
ATOM     17  C   UNL     1      10.752  48.642  31.765  0.00  0.00    +0.000 C 
ATOM     18  C   UNL     1      11.771  49.588  32.399  0.00  0.00    +0.000 C 
ENDBRANCH  11  12
ENDBRANCH   5   7
BRANCH   1  19
ATOM     19  C   UNL     1       8.420  41.443  34.643  0.00  0.00    +0.000 C 
BRANCH  19  21
ATOM     20  C   UNL     1       6.885  39.813  33.603  0.00  0.00    +0.000 C 
ATOM     21  N   UNL     1       7.466  41.150  33.566  0.00  0.00    +0.000 NA
ATOM     22  H   UNL     1       6.709  41.829  33.640  0.00  0.00    +0.000 HD
ENDBRANCH  19  21
ENDBRANCH   1  19
BRANCH   2  23
ATOM     23  C   UNL     1      10.829  40.212  33.042  0.00  0.00    +0.000 C 
BRANCH  23  24
ATOM     24  C   UNL     1      10.584  39.996  31.565  0.00  0.00    +0.000 A 
ATOM     25  C   UNL     1      11.512  39.319  30.778  0.00  0.00    +0.000 A 
ATOM     26  C   UNL     1      11.211  39.047  29.448  0.00  0.00    +0.000 A 
ATOM     27  C   UNL     1       9.988  39.451  28.930  0.00  0.00    +0.000 A 
ATOM     28  C   UNL     1       9.117  40.118  29.773  0.00  0.00    +0.000 A 
ATOM     29  N   UNL     1       9.384  40.399  31.069  0.00  0.00    +0.000 NA
ENDBRANCH  23  24
ENDBRANCH   2  23
TORSDOF 6
ENDMDL
MODEL 6
REMARK VINA RESULT:      -5.4      5.029      7.461
REMARK  Name = 
REMARK  8 active torsions:
REMARK  status: ('A' for Active; 'I' for Inactive)
REMARK    1  A    between atoms: C_1  and  N_2
REMARK    2  A    between atoms: N_2  and  C_3
REMARK    3  A    between atoms: C_3  and  C_4
REMARK    4  A    between atoms: C_5  and  C_6
REMARK    5  A    between atoms: C_6  and  C_7
REMARK    6  A    between atoms: C_15  and  C_16
REMARK    7  A    between atoms: C_20  and  C_21
REMARK    8  A    between atoms: C_26  and  C_27
REMARK                            x       y       z     vdW  Elec       q    Type
REMARK                         _______ _______ _______ _____ _____    ______ ____
ROOT
ATOM      1  C   UNL     1       9.821  40.586  29.989  0.00  0.00    +0.000 A 
ATOM      2  C   UNL     1       9.724  41.985  30.140  0.00  0.00    +0.000 A 
ATOM      3  C   UNL     1       8.470  42.603  29.915  0.00  0.00    +0.000 A 
ATOM      4  C   UNL     1       7.338  41.875  29.523  0.00  0.00    +0.000 A 
ATOM      5  C   UNL     1       7.421  40.495  29.384  0.00  0.00    +0.000 A 
ATOM      6  C   UNL     1       8.667  39.885  29.594  0.00  0.00    +0.000 A 
ENDROOT
BRANCH   5   7
ATOM      7  C   UNL     1       6.285  39.558  29.036  0.00  0.00    +0.000 C 
ATOM      8  C   UNL     1       6.729  38.670  27.879  0.00  0.00    +0.000 C 
ATOM      9  C   UNL     1       6.179  39.394  26.672  0.00  0.00    +0.000 C 
ATOM     10  O   UNL     1       5.007  40.098  27.097  0.00  0.00    +0.000 OA
ATOM     11  C   UNL     1       4.907  40.022  28.544  0.00  0.00    +0.000 C 
BRANCH  11  12
ATOM     12  C   UNL     1       4.153  41.274  29.075  0.00  0.00    +0.000 C 
ATOM     13  C   UNL     1       3.826  42.155  27.826  0.00  0.00    +0.000 C 
ATOM     14  C   UNL     1       3.072  43.442  28.145  0.00  0.00    +0.000 C 
ATOM     15  C   UNL     1       1.807  43.157  28.931  0.00  0.00    +0.000 C 
ATOM     16  C   UNL     1       2.136  42.382  30.191  0.00  0.00    +0.000 C 
ATOM     17  C   UNL     1       2.837  41.042  29.884  0.00  0.00    +0.000 C 
ATOM     18  C   UNL     1       2.996  40.341  31.233  0.00  0.00    +0.000 C 
ENDBRANCH  11  12
ENDBRANCH   5   7
BRANCH   1  19
ATOM     19  C   UNL     1      11.070  39.750  30.173  0.00  0.00    +0.000 C 
BRANCH  19  21
ATOM     20  C   UNL     1      12.532  38.073  29.102  0.00  0.00    +0.000 C 
ATOM     21  N   UNL     1      11.704  39.262  28.941  0.00  0.00    +0.000 NA
ATOM     22  H   UNL     1      10.956  39.043  28.283  0.00  0.00    +0.000 HD
ENDBRANCH  19  21
ENDBRANCH   1  19
BRANCH   2  23
ATOM     23  C   UNL     1      10.917  42.879  30.427  0.00  0.00    +0.000 C 
BRANCH  23  24
ATOM     24  C   UNL     1      11.084  43.377  31.846  0.00  0.00    +0.000 A 
ATOM     25  C   UNL     1      11.403  42.499  32.878  0.00  0.00    +0.000 A 
ATOM     26  C   UNL     1      11.652  43.002  34.151  0.00  0.00    +0.000 A 
ATOM     27  C   UNL     1      11.582  44.371  34.368  0.00  0.00    +0.000 A 
ATOM     28  C   UNL     1      11.260  45.180  33.292  0.00  0.00    +0.000 A 
ATOM     29  N   UNL     1      11.011  44.720  32.045  0.00  0.00    +0.000 NA
ENDBRANCH  23  24
ENDBRANCH   2  23
TORSDOF 6
ENDMDL
MODEL 7
REMARK VINA RESULT:      -4.7      4.817      7.485
REMARK  Name = 
REMARK  8 active torsions:
REMARK  status: ('A' for Active; 'I' for Inactive)
REMARK    1  A    between atoms: C_1  and  N_2
REMARK    2  A    between atoms: N_2  and  C_3
REMARK    3  A    between atoms: C_3  and  C_4
REMARK    4  A    between atoms: C_5  and  C_6
REMARK    5  A    between atoms: C_6  and  C_7
REMARK    6  A    between atoms: C_15  and  C_16
REMARK    7  A    between atoms: C_20  and  C_21
REMARK    8  A    between atoms: C_26  and  C_27
REMARK                            x       y       z     vdW  Elec       q    Type
REMARK                         _______ _______ _______ _____ _____    ______ ____
ROOT
ATOM      1  C   UNL     1       9.965  40.977  30.249  0.00  0.00    +0.000 A 
ATOM      2  C   UNL     1       9.987  42.385  30.332  0.00  0.00    +0.000 A 
ATOM      3  C   UNL     1       8.819  43.100  29.969  0.00  0.00    +0.000 A 
ATOM      4  C   UNL     1       7.662  42.457  29.508  0.00  0.00    +0.000 A 
ATOM      5  C   UNL     1       7.628  41.069  29.436  0.00  0.00    +0.000 A 
ATOM      6  C   UNL     1       8.789  40.363  29.783  0.00  0.00    +0.000 A 
ENDROOT
BRANCH   5   7
ATOM      7  C   UNL     1       6.443  40.221  29.027  0.00  0.00    +0.000 C 
ATOM      8  C   UNL     1       6.913  38.779  28.872  0.00  0.00    +0.000 C 
ATOM      9  C   UNL     1       7.189  38.675  27.390  0.00  0.00    +0.000 C 
ATOM     10  O   UNL     1       6.314  39.596  26.730  0.00  0.00    +0.000 OA
ATOM     11  C   UNL     1       5.652  40.418  27.727  0.00  0.00    +0.000 C 
BRANCH  11  12
ATOM     12  C   UNL     1       5.299  41.800  27.107  0.00  0.00    +0.000 C 
ATOM     13  C   UNL     1       5.859  41.782  25.647  0.00  0.00    +0.000 C 
ATOM     14  C   UNL     1       5.604  43.065  24.861  0.00  0.00    +0.000 C 
ATOM     15  C   UNL     1       4.130  43.421  24.854  0.00  0.00    +0.000 C 
ATOM     16  C   UNL     1       3.609  43.528  26.273  0.00  0.00    +0.000 C 
ATOM     17  C   UNL     1       3.794  42.216  27.063  0.00  0.00    +0.000 C 
ATOM     18  C   UNL     1       3.126  42.451  28.417  0.00  0.00    +0.000 C 
ENDBRANCH  11  12
ENDBRANCH   5   7
BRANCH   1  19
ATOM     19  C   UNL     1      11.111  40.043  30.580  0.00  0.00    +0.000 C 
BRANCH  19  21
ATOM     20  C   UNL     1      12.024  38.121  29.329  0.00  0.00    +0.000 C 
ATOM     21  N   UNL     1      11.904  39.569  29.438  0.00  0.00    +0.000 NA
ATOM     22  H   UNL     1      11.452  39.917  28.592  0.00  0.00    +0.000 HD
ENDBRANCH  19  21
ENDBRANCH   1  19
BRANCH   2  23
ATOM     23  C   UNL     1      11.229  43.182  30.686  0.00  0.00    +0.000 C 
BRANCH  23  24
ATOM     24  C   UNL     1      11.047  44.379  31.594  0.00  0.00    +0.000 A 
ATOM     25  C   UNL     1      11.083  45.674  31.085  0.00  0.00    +0.000 A 
ATOM     26  C   UNL     1      10.809  46.748  31.926  0.00  0.00    +0.000 A 
ATOM     27  C   UNL     1      10.502  46.507  33.258  0.00  0.00    +0.000 A 
ATOM     28  C   UNL     1      10.485  45.193  33.691  0.00  0.00    +0.000 A 
ATOM     29  N   UNL     1      10.749  44.131  32.897  0.00  0.00    +0.000 NA
ENDBRANCH  23  24
ENDBRANCH   2  23
TORSDOF 6
ENDMDL
