MODEL 1
REMARK VINA RESULT:      20.0      0.000      0.000
REMARK  Name = 
REMARK  4 active torsions:
REMARK  status: ('A' for Active; 'I' for Inactive)
REMARK    1  A    between atoms: C_8  and  C_9
REMARK    2  A    between atoms: C_14  and  C_15
REMARK    3  A    between atoms: C_20  and  C_21
REMARK    4  A    between atoms: C_26  and  C_27
REMARK                            x       y       z     vdW  Elec       q    Type
REMARK                         _______ _______ _______ _____ _____    ______ ____
ROOT
ATOM      1  C   UNL     1     -36.475   2.584  16.448  0.00  0.00    +0.000 A 
ATOM      2  C   UNL     1     -37.641   2.370  15.738  0.00  0.00    +0.000 A 
ATOM      3  C   UNL     1     -37.848   1.154  15.050  0.00  0.00    +0.000 A 
ATOM      4  C   UNL     1     -36.873   0.128  15.066  0.00  0.00    +0.000 A 
ATOM      5  N   UNL     1     -37.171  -1.109  14.473  0.00  0.00    +0.000 N 
ATOM      6  C   UNL     1     -35.994  -1.984  14.328  0.00  0.00    +0.000 C 
ATOM      7  C   UNL     1     -35.392  -2.157  15.772  0.00  0.00    +0.000 C 
ATOM      8  C   UNL     1     -34.179  -3.082  15.891  0.00  0.00    +0.000 C 
ATOM      9  C   UNL     1     -33.126  -2.224  15.261  0.00  0.00    +0.000 C 
ATOM     10  C   UNL     1     -33.458  -0.929  15.373  0.00  0.00    +0.000 C 
ATOM     11  C   UNL     1     -34.764  -0.799  16.125  0.00  0.00    +0.000 C 
ATOM     12  C   UNL     1     -35.727   0.324  15.847  0.00  0.00    +0.000 A 
ATOM     13  C   UNL     1     -35.493   1.565  16.457  0.00  0.00    +0.000 A 
ATOM     14  H   UNL     1     -37.734  -1.031  13.637  0.00  0.00    +0.000 HD
ENDROOT
BRANCH   1  20
ATOM     15  C   UNL     1     -35.372   8.677  18.471  0.00  0.00    +0.000 A 
ATOM     16  C   UNL     1     -35.199   8.546  17.086  0.00  0.00    +0.000 A 
ATOM     17  C   UNL     1     -35.417   7.319  16.450  0.00  0.00    +0.000 A 
ATOM     18  C   UNL     1     -35.786   6.182  17.180  0.00  0.00    +0.000 A 
ATOM     19  N   UNL     1     -36.205   5.031  16.465  0.00  0.00    +0.000 N 
ATOM     20  C   UNL     1     -36.212   3.828  17.280  0.00  0.00    +0.000 C 
ATOM     21  C   UNL     1     -37.170   4.072  18.494  0.00  0.00    +0.000 C 
ATOM     22  C   UNL     1     -37.304   2.901  19.464  0.00  0.00    +0.000 C 
ATOM     23  C   UNL     1     -35.951   2.923  20.105  0.00  0.00    +0.000 C 
ATOM     24  C   UNL     1     -35.462   4.187  20.078  0.00  0.00    +0.000 C 
ATOM     25  C   UNL     1     -36.450   5.111  19.388  0.00  0.00    +0.000 C 
ATOM     26  C   UNL     1     -35.919   6.278  18.581  0.00  0.00    +0.000 A 
ATOM     27  C   UNL     1     -35.692   7.522  19.214  0.00  0.00    +0.000 A 
ATOM     28  H   UNL     1     -35.679   4.912  15.605  0.00  0.00    +0.000 HD
BRANCH  15  36
ATOM     29  C   UNL     1     -32.341  13.163  21.308  0.00  0.00    +0.000 A 
ATOM     30  C   UNL     1     -33.054  14.263  20.847  0.00  0.00    +0.000 A 
ATOM     31  C   UNL     1     -34.094  14.072  19.944  0.00  0.00    +0.000 A 
ATOM     32  C   UNL     1     -34.456  12.776  19.523  0.00  0.00    +0.000 A 
ATOM     33  C   UNL     1     -33.722  11.671  19.965  0.00  0.00    +0.000 A 
ATOM     34  C   UNL     1     -32.656  11.882  20.849  0.00  0.00    +0.000 A 
ATOM     35  N   UNL     1     -33.923  10.400  19.393  0.00  0.00    +0.000 N 
ATOM     36  C   UNL     1     -35.324  10.063  19.120  0.00  0.00    +0.000 C 
ATOM     37  C   UNL     1     -36.041  11.132  18.292  0.00  0.00    +0.000 C 
ATOM     38  C   UNL     1     -37.526  11.205  18.674  0.00  0.00    +0.000 C 
ATOM     39  C   UNL     1     -37.850  12.636  18.466  0.00  0.00    +0.000 C 
ATOM     40  C   UNL     1     -36.751  13.381  18.614  0.00  0.00    +0.000 C 
ATOM     41  C   UNL     1     -35.497  12.570  18.470  0.00  0.00    +0.000 C 
ATOM     42  H   UNL     1     -33.480   9.672  19.948  0.00  0.00    +0.000 HD
ENDBRANCH  15  36
ENDBRANCH   1  20
BRANCH   6  43
ATOM     43  C   UNL     1     -36.305  -3.271  13.567  0.00  0.00    +0.000 A 
ATOM     44  C   UNL     1     -36.633  -4.421  14.324  0.00  0.00    +0.000 A 
ATOM     45  C   UNL     1     -36.692  -5.688  13.746  0.00  0.00    +0.000 A 
ATOM     46  C   UNL     1     -36.481  -5.835  12.386  0.00  0.00    +0.000 A 
ATOM     47  C   UNL     1     -36.241  -4.711  11.601  0.00  0.00    +0.000 A 
ATOM     48  C   UNL     1     -36.160  -3.408  12.150  0.00  0.00    +0.000 A 
BRANCH  48  49
ATOM     49  C   UNL     1     -35.900  -2.258  11.147  0.00  0.00    +0.000 C 
ATOM     50  N   UNL     1     -36.422  -1.013  11.739  0.00  0.00    +0.000 N 
ATOM     51  C   UNL     1     -36.133   0.191  11.086  0.00  0.00    +0.000 A 
ATOM     52  C   UNL     1     -36.860   1.352  11.420  0.00  0.00    +0.000 A 
ATOM     53  C   UNL     1     -36.516   2.600  10.894  0.00  0.00    +0.000 A 
ATOM     54  C   UNL     1     -35.442   2.717  10.023  0.00  0.00    +0.000 A 
ATOM     55  C   UNL     1     -34.699   1.586   9.697  0.00  0.00    +0.000 A 
ATOM     56  C   UNL     1     -35.026   0.327  10.246  0.00  0.00    +0.000 A 
ATOM     57  C   UNL     1     -34.114  -0.837   9.983  0.00  0.00    +0.000 C 
ATOM     58  C   UNL     1     -34.181  -1.415   8.597  0.00  0.00    +0.000 C 
ATOM     59  C   UNL     1     -33.994  -2.739   8.632  0.00  0.00    +0.000 C 
ATOM     60  C   UNL     1     -33.794  -3.224  10.029  0.00  0.00    +0.000 C 
ATOM     61  C   UNL     1     -34.382  -2.077  10.864  0.00  0.00    +0.000 C 
ATOM     62  H   UNL     1     -37.383  -1.086  12.055  0.00  0.00    +0.000 HD
ENDBRANCH  48  49
ENDBRANCH   6  43
TORSDOF 4
ENDMDL
