MODEL 1
REMARK VINA RESULT:       4.1      0.000      0.000
REMARK  Name = 
REMARK  4 active torsions:
REMARK  status: ('A' for Active; 'I' for Inactive)
REMARK    1  A    between atoms: C_8  and  C_9
REMARK    2  A    between atoms: C_14  and  C_15
REMARK    3  A    between atoms: C_20  and  C_21
REMARK    4  A    between atoms: C_26  and  C_27
REMARK                            x       y       z     vdW  Elec       q    Type
REMARK                         _______ _______ _______ _____ _____    ______ ____
ROOT
ATOM      1  C   UNL     1     -34.516   6.197  11.778  0.00  0.00    +0.000 A 
ATOM      2  C   UNL     1     -33.866   7.172  10.982  0.00  0.00    +0.000 A 
ATOM      3  C   UNL     1     -33.392   8.368  11.518  0.00  0.00    +0.000 A 
ATOM      4  C   UNL     1     -33.601   8.654  12.857  0.00  0.00    +0.000 A 
ATOM      5  C   UNL     1     -34.299   7.752  13.657  0.00  0.00    +0.000 A 
ATOM      6  C   UNL     1     -34.779   6.513  13.154  0.00  0.00    +0.000 A 
ENDROOT
BRANCH   1  12
ATOM      7  C   UNL     1     -34.965  -0.199  10.418  0.00  0.00    +0.000 A 
ATOM      8  C   UNL     1     -34.391   0.024  11.679  0.00  0.00    +0.000 A 
ATOM      9  C   UNL     1     -34.246   1.320  12.197  0.00  0.00    +0.000 A 
ATOM     10  C   UNL     1     -34.646   2.449  11.475  0.00  0.00    +0.000 A 
ATOM     11  N   UNL     1     -34.618   3.724  12.094  0.00  0.00    +0.000 N 
ATOM     12  C   UNL     1     -34.768   4.829  11.140  0.00  0.00    +0.000 C 
ATOM     13  C   UNL     1     -36.180   4.577  10.447  0.00  0.00    +0.000 C 
ATOM     14  C   UNL     1     -36.658   5.628   9.444  0.00  0.00    +0.000 C 
ATOM     15  C   UNL     1     -35.673   5.390   8.340  0.00  0.00    +0.000 C 
ATOM     16  C   UNL     1     -35.265   4.111   8.370  0.00  0.00    +0.000 C 
ATOM     17  C   UNL     1     -35.961   3.376   9.511  0.00  0.00    +0.000 C 
ATOM     18  C   UNL     1     -35.257   2.242  10.209  0.00  0.00    +0.000 A 
ATOM     19  C   UNL     1     -35.370   0.930   9.681  0.00  0.00    +0.000 A 
ATOM     20  H   UNL     1     -33.845   3.829  12.740  0.00  0.00    +0.000 HD
BRANCH   7  28
ATOM     21  C   UNL     1     -37.851  -4.075   6.677  0.00  0.00    +0.000 A 
ATOM     22  C   UNL     1     -36.930  -5.114   6.649  0.00  0.00    +0.000 A 
ATOM     23  C   UNL     1     -35.730  -4.984   7.342  0.00  0.00    +0.000 A 
ATOM     24  C   UNL     1     -35.450  -3.831   8.098  0.00  0.00    +0.000 A 
ATOM     25  C   UNL     1     -36.362  -2.774   8.123  0.00  0.00    +0.000 A 
ATOM     26  C   UNL     1     -37.560  -2.905   7.384  0.00  0.00    +0.000 A 
ATOM     27  N   UNL     1     -36.035  -1.544   8.700  0.00  0.00    +0.000 N 
ATOM     28  C   UNL     1     -35.268  -1.631   9.949  0.00  0.00    +0.000 C 
ATOM     29  C   UNL     1     -34.022  -2.521   9.821  0.00  0.00    +0.000 C 
ATOM     30  C   UNL     1     -33.713  -3.251  11.140  0.00  0.00    +0.000 C 
ATOM     31  C   UNL     1     -33.049  -4.521  10.688  0.00  0.00    +0.000 C 
ATOM     32  C   UNL     1     -33.570  -4.872   9.498  0.00  0.00    +0.000 C 
ATOM     33  C   UNL     1     -34.113  -3.646   8.764  0.00  0.00    +0.000 C 
ATOM     34  H   UNL     1     -36.855  -0.956   8.821  0.00  0.00    +0.000 HD
ENDBRANCH   7  28
ENDBRANCH   1  12
BRANCH   6  35
ATOM     35  C   UNL     1     -35.522   5.614  14.176  0.00  0.00    +0.000 C 
ATOM     36  N   UNL     1     -35.753   4.293  13.568  0.00  0.00    +0.000 N 
ATOM     37  C   UNL     1     -36.154   3.205  14.338  0.00  0.00    +0.000 A 
ATOM     38  C   UNL     1     -36.657   2.038  13.747  0.00  0.00    +0.000 A 
ATOM     39  C   UNL     1     -37.001   0.908  14.511  0.00  0.00    +0.000 A 
ATOM     40  C   UNL     1     -36.828   0.905  15.902  0.00  0.00    +0.000 A 
ATOM     41  C   UNL     1     -36.321   2.067  16.489  0.00  0.00    +0.000 A 
ATOM     42  C   UNL     1     -35.984   3.205  15.726  0.00  0.00    +0.000 A 
ATOM     43  C   UNL     1     -35.341   4.366  16.417  0.00  0.00    +0.000 C 
ATOM     44  C   UNL     1     -36.243   5.226  17.257  0.00  0.00    +0.000 C 
ATOM     45  C   UNL     1     -35.807   6.492  17.254  0.00  0.00    +0.000 C 
ATOM     46  C   UNL     1     -34.597   6.639  16.373  0.00  0.00    +0.000 C 
ATOM     47  C   UNL     1     -34.683   5.396  15.481  0.00  0.00    +0.000 C 
ATOM     48  H   UNL     1     -35.905   4.262  12.566  0.00  0.00    +0.000 HD
BRANCH  40  49
ATOM     49  C   UNL     1     -37.163  -0.287  16.775  0.00  0.00    +0.000 C 
ATOM     50  N   UNL     1     -37.023  -1.509  15.978  0.00  0.00    +0.000 N 
ATOM     51  C   UNL     1     -37.347  -2.697  16.655  0.00  0.00    +0.000 A 
ATOM     52  C   UNL     1     -37.630  -3.851  15.914  0.00  0.00    +0.000 A 
ATOM     53  C   UNL     1     -37.850  -5.078  16.545  0.00  0.00    +0.000 A 
ATOM     54  C   UNL     1     -37.770  -5.170  17.931  0.00  0.00    +0.000 A 
ATOM     55  C   UNL     1     -37.461  -4.038  18.682  0.00  0.00    +0.000 A 
ATOM     56  C   UNL     1     -37.229  -2.801  18.053  0.00  0.00    +0.000 A 
ATOM     57  C   UNL     1     -36.786  -1.625  18.881  0.00  0.00    +0.000 C 
ATOM     58  C   UNL     1     -37.851  -0.987  19.740  0.00  0.00    +0.000 C 
ATOM     59  C   UNL     1     -37.662   0.336  19.830  0.00  0.00    +0.000 C 
ATOM     60  C   UNL     1     -36.474   0.764  19.024  0.00  0.00    +0.000 C 
ATOM     61  C   UNL     1     -36.295  -0.416  18.054  0.00  0.00    +0.000 C 
ATOM     62  H   UNL     1     -37.508  -1.438  15.085  0.00  0.00    +0.000 HD
ENDBRANCH  40  49
ENDBRANCH   6  35
TORSDOF 4
ENDMDL
MODEL 2
REMARK VINA RESULT:       5.2      1.156      2.065
REMARK  Name = 
REMARK  4 active torsions:
REMARK  status: ('A' for Active; 'I' for Inactive)
REMARK    1  A    between atoms: C_8  and  C_9
REMARK    2  A    between atoms: C_14  and  C_15
REMARK    3  A    between atoms: C_20  and  C_21
REMARK    4  A    between atoms: C_26  and  C_27
REMARK                            x       y       z     vdW  Elec       q    Type
REMARK                         _______ _______ _______ _____ _____    ______ ____
ROOT
ATOM      1  C   UNL     1     -34.539   6.124  11.751  0.00  0.00    +0.000 A 
ATOM      2  C   UNL     1     -33.913   7.186  11.052  0.00  0.00    +0.000 A 
ATOM      3  C   UNL     1     -33.526   8.364  11.688  0.00  0.00    +0.000 A 
ATOM      4  C   UNL     1     -33.803   8.543  13.033  0.00  0.00    +0.000 A 
ATOM      5  C   UNL     1     -34.482   7.553  13.739  0.00  0.00    +0.000 A 
ATOM      6  C   UNL     1     -34.874   6.329  13.133  0.00  0.00    +0.000 A 
ENDROOT
BRANCH   1  12
ATOM      7  C   UNL     1     -34.232  -0.110   9.750  0.00  0.00    +0.000 A 
ATOM      8  C   UNL     1     -33.470   0.101  10.909  0.00  0.00    +0.000 A 
ATOM      9  C   UNL     1     -33.433   1.354  11.542  0.00  0.00    +0.000 A 
ATOM     10  C   UNL     1     -34.136   2.453  11.038  0.00  0.00    +0.000 A 
ATOM     11  N   UNL     1     -34.190   3.654  11.788  0.00  0.00    +0.000 N 
ATOM     12  C   UNL     1     -34.692   4.794  11.011  0.00  0.00    +0.000 C 
ATOM     13  C   UNL     1     -36.153   4.358  10.550  0.00  0.00    +0.000 C 
ATOM     14  C   UNL     1     -36.974   5.391   9.776  0.00  0.00    +0.000 C 
ATOM     15  C   UNL     1     -36.193   5.426   8.498  0.00  0.00    +0.000 C 
ATOM     16  C   UNL     1     -35.592   4.242   8.306  0.00  0.00    +0.000 C 
ATOM     17  C   UNL     1     -35.933   3.300   9.456  0.00  0.00    +0.000 C 
ATOM     18  C   UNL     1     -34.938   2.251   9.883  0.00  0.00    +0.000 A 
ATOM     19  C   UNL     1     -34.943   0.990   9.233  0.00  0.00    +0.000 A 
ATOM     20  H   UNL     1     -33.333   3.837  12.297  0.00  0.00    +0.000 HD
BRANCH   7  28
ATOM     21  C   UNL     1     -37.771  -4.741   7.914  0.00  0.00    +0.000 A 
ATOM     22  C   UNL     1     -36.950  -5.304   6.947  0.00  0.00    +0.000 A 
ATOM     23  C   UNL     1     -35.727  -4.705   6.653  0.00  0.00    +0.000 A 
ATOM     24  C   UNL     1     -35.297  -3.558   7.346  0.00  0.00    +0.000 A 
ATOM     25  C   UNL     1     -36.120  -2.976   8.311  0.00  0.00    +0.000 A 
ATOM     26  C   UNL     1     -37.375  -3.573   8.571  0.00  0.00    +0.000 A 
ATOM     27  N   UNL     1     -35.814  -1.735   8.876  0.00  0.00    +0.000 N 
ATOM     28  C   UNL     1     -34.392  -1.526   9.176  0.00  0.00    +0.000 C 
ATOM     29  C   UNL     1     -33.481  -1.816   7.973  0.00  0.00    +0.000 C 
ATOM     30  C   UNL     1     -32.122  -2.385   8.418  0.00  0.00    +0.000 C 
ATOM     31  C   UNL     1     -31.712  -3.254   7.263  0.00  0.00    +0.000 C 
ATOM     32  C   UNL     1     -32.823  -3.760   6.698  0.00  0.00    +0.000 C 
ATOM     33  C   UNL     1     -34.025  -2.852   6.961  0.00  0.00    +0.000 C 
ATOM     34  H   UNL     1     -36.386  -1.543   9.694  0.00  0.00    +0.000 HD
ENDBRANCH   7  28
ENDBRANCH   1  12
BRANCH   6  35
ATOM     35  C   UNL     1     -35.606   5.323  14.059  0.00  0.00    +0.000 C 
ATOM     36  N   UNL     1     -35.460   3.969  13.500  0.00  0.00    +0.000 N 
ATOM     37  C   UNL     1     -35.780   2.841  14.250  0.00  0.00    +0.000 A 
ATOM     38  C   UNL     1     -35.929   1.583  13.649  0.00  0.00    +0.000 A 
ATOM     39  C   UNL     1     -36.185   0.426  14.407  0.00  0.00    +0.000 A 
ATOM     40  C   UNL     1     -36.277   0.490  15.803  0.00  0.00    +0.000 A 
ATOM     41  C   UNL     1     -36.122   1.743  16.401  0.00  0.00    +0.000 A 
ATOM     42  C   UNL     1     -35.875   2.908  15.643  0.00  0.00    +0.000 A 
ATOM     43  C   UNL     1     -35.608   4.190  16.367  0.00  0.00    +0.000 C 
ATOM     44  C   UNL     1     -36.800   4.871  16.980  0.00  0.00    +0.000 C 
ATOM     45  C   UNL     1     -36.624   6.198  16.978  0.00  0.00    +0.000 C 
ATOM     46  C   UNL     1     -35.322   6.565  16.319  0.00  0.00    +0.000 C 
ATOM     47  C   UNL     1     -34.999   5.309  15.503  0.00  0.00    +0.000 C 
ATOM     48  H   UNL     1     -35.414   3.885  12.490  0.00  0.00    +0.000 HD
BRANCH  40  49
ATOM     49  C   UNL     1     -36.532  -0.725  16.673  0.00  0.00    +0.000 C 
ATOM     50  N   UNL     1     -36.801  -0.276  18.042  0.00  0.00    +0.000 N 
ATOM     51  C   UNL     1     -37.016  -1.309  18.970  0.00  0.00    +0.000 A 
ATOM     52  C   UNL     1     -36.890  -1.034  20.338  0.00  0.00    +0.000 A 
ATOM     53  C   UNL     1     -37.198  -2.000  21.299  0.00  0.00    +0.000 A 
ATOM     54  C   UNL     1     -37.658  -3.252  20.903  0.00  0.00    +0.000 A 
ATOM     55  C   UNL     1     -37.816  -3.532  19.547  0.00  0.00    +0.000 A 
ATOM     56  C   UNL     1     -37.516  -2.561  18.574  0.00  0.00    +0.000 A 
ATOM     57  C   UNL     1     -37.806  -2.855  17.126  0.00  0.00    +0.000 C 
ATOM     58  C   UNL     1     -36.863  -3.822  16.450  0.00  0.00    +0.000 C 
ATOM     59  C   UNL     1     -36.686  -3.494  15.164  0.00  0.00    +0.000 C 
ATOM     60  C   UNL     1     -37.453  -2.255  14.816  0.00  0.00    +0.000 C 
ATOM     61  C   UNL     1     -37.701  -1.626  16.197  0.00  0.00    +0.000 C 
ATOM     62  H   UNL     1     -36.103   0.388  18.368  0.00  0.00    +0.000 HD
ENDBRANCH  40  49
ENDBRANCH   6  35
TORSDOF 4
ENDMDL
MODEL 3
REMARK VINA RESULT:       6.1      1.433      1.778
REMARK  Name = 
REMARK  4 active torsions:
REMARK  status: ('A' for Active; 'I' for Inactive)
REMARK    1  A    between atoms: C_8  and  C_9
REMARK    2  A    between atoms: C_14  and  C_15
REMARK    3  A    between atoms: C_20  and  C_21
REMARK    4  A    between atoms: C_26  and  C_27
REMARK                            x       y       z     vdW  Elec       q    Type
REMARK                         _______ _______ _______ _____ _____    ______ ____
ROOT
ATOM      1  C   UNL     1     -33.243   6.116  10.399  0.00  0.00    +0.000 A 
ATOM      2  C   UNL     1     -32.519   6.994   9.555  0.00  0.00    +0.000 A 
ATOM      3  C   UNL     1     -32.022   8.214  10.007  0.00  0.00    +0.000 A 
ATOM      4  C   UNL     1     -32.280   8.624  11.304  0.00  0.00    +0.000 A 
ATOM      5  C   UNL     1     -33.050   7.823  12.144  0.00  0.00    +0.000 A 
ATOM      6  C   UNL     1     -33.557   6.563  11.728  0.00  0.00    +0.000 A 
ENDROOT
BRANCH   1  12
ATOM      7  C   UNL     1     -33.712  -0.359   9.496  0.00  0.00    +0.000 A 
ATOM      8  C   UNL     1     -33.063  -0.049  10.700  0.00  0.00    +0.000 A 
ATOM      9  C   UNL     1     -32.898   1.281  11.121  0.00  0.00    +0.000 A 
ATOM     10  C   UNL     1     -33.354   2.357  10.353  0.00  0.00    +0.000 A 
ATOM     11  N   UNL     1     -33.300   3.670  10.883  0.00  0.00    +0.000 N 
ATOM     12  C   UNL     1     -33.522   4.708   9.870  0.00  0.00    +0.000 C 
ATOM     13  C   UNL     1     -34.972   4.402   9.286  0.00  0.00    +0.000 C 
ATOM     14  C   UNL     1     -35.523   5.380   8.248  0.00  0.00    +0.000 C 
ATOM     15  C   UNL     1     -34.607   5.076   7.103  0.00  0.00    +0.000 C 
ATOM     16  C   UNL     1     -34.185   3.805   7.191  0.00  0.00    +0.000 C 
ATOM     17  C   UNL     1     -34.800   3.143   8.419  0.00  0.00    +0.000 C 
ATOM     18  C   UNL     1     -34.042   2.061   9.145  0.00  0.00    +0.000 A 
ATOM     19  C   UNL     1     -34.174   0.717   8.713  0.00  0.00    +0.000 A 
ATOM     20  H   UNL     1     -32.489   3.822  11.471  0.00  0.00    +0.000 HD
BRANCH   7  28
ATOM     21  C   UNL     1     -37.695  -4.964   8.982  0.00  0.00    +0.000 A 
ATOM     22  C   UNL     1     -37.108  -5.677   7.946  0.00  0.00    +0.000 A 
ATOM     23  C   UNL     1     -35.953  -5.184   7.344  0.00  0.00    +0.000 A 
ATOM     24  C   UNL     1     -35.355  -3.992   7.792  0.00  0.00    +0.000 A 
ATOM     25  C   UNL     1     -35.944  -3.260   8.824  0.00  0.00    +0.000 A 
ATOM     26  C   UNL     1     -37.136  -3.754   9.400  0.00  0.00    +0.000 A 
ATOM     27  N   UNL     1     -35.489  -1.982   9.160  0.00  0.00    +0.000 N 
ATOM     28  C   UNL     1     -34.030  -1.820   9.142  0.00  0.00    +0.000 C 
ATOM     29  C   UNL     1     -33.395  -2.294   7.826  0.00  0.00    +0.000 C 
ATOM     30  C   UNL     1     -31.992  -2.883   8.056  0.00  0.00    +0.000 C 
ATOM     31  C   UNL     1     -31.855  -3.898   6.957  0.00  0.00    +0.000 C 
ATOM     32  C   UNL     1     -33.074  -4.402   6.691  0.00  0.00    +0.000 C 
ATOM     33  C   UNL     1     -34.167  -3.406   7.077  0.00  0.00    +0.000 C 
ATOM     34  H   UNL     1     -35.875  -1.668  10.046  0.00  0.00    +0.000 HD
ENDBRANCH   7  28
ENDBRANCH   1  12
BRANCH   6  35
ATOM     35  C   UNL     1     -34.381   5.785  12.786  0.00  0.00    +0.000 C 
ATOM     36  N   UNL     1     -34.845   4.520  12.193  0.00  0.00    +0.000 N 
ATOM     37  C   UNL     1     -35.374   3.504  12.983  0.00  0.00    +0.000 A 
ATOM     38  C   UNL     1     -36.083   2.433  12.418  0.00  0.00    +0.000 A 
ATOM     39  C   UNL     1     -36.562   1.367  13.201  0.00  0.00    +0.000 A 
ATOM     40  C   UNL     1     -36.325   1.329  14.581  0.00  0.00    +0.000 A 
ATOM     41  C   UNL     1     -35.614   2.393  15.141  0.00  0.00    +0.000 A 
ATOM     42  C   UNL     1     -35.140   3.469  14.361  0.00  0.00    +0.000 A 
ATOM     43  C   UNL     1     -34.290   4.510  15.018  0.00  0.00    +0.000 C 
ATOM     44  C   UNL     1     -35.004   5.496  15.899  0.00  0.00    +0.000 C 
ATOM     45  C   UNL     1     -34.375   6.678  15.872  0.00  0.00    +0.000 C 
ATOM     46  C   UNL     1     -33.201   6.639  14.934  0.00  0.00    +0.000 C 
ATOM     47  C   UNL     1     -33.524   5.430  14.049  0.00  0.00    +0.000 C 
ATOM     48  H   UNL     1     -35.048   4.519  11.199  0.00  0.00    +0.000 HD
BRANCH  40  49
ATOM     49  C   UNL     1     -36.800   0.198  15.471  0.00  0.00    +0.000 C 
ATOM     50  N   UNL     1     -36.704  -1.060  14.726  0.00  0.00    +0.000 N 
ATOM     51  C   UNL     1     -37.155  -2.195  15.423  0.00  0.00    +0.000 A 
ATOM     52  C   UNL     1     -37.478  -3.353  14.705  0.00  0.00    +0.000 A 
ATOM     53  C   UNL     1     -37.827  -4.536  15.362  0.00  0.00    +0.000 A 
ATOM     54  C   UNL     1     -37.838  -4.580  16.752  0.00  0.00    +0.000 A 
ATOM     55  C   UNL     1     -37.492  -3.445  17.482  0.00  0.00    +0.000 A 
ATOM     56  C   UNL     1     -37.131  -2.253  16.827  0.00  0.00    +0.000 A 
ATOM     57  C   UNL     1     -36.653  -1.080  17.642  0.00  0.00    +0.000 C 
ATOM     58  C   UNL     1     -37.718  -0.334  18.408  0.00  0.00    +0.000 C 
ATOM     59  C   UNL     1     -37.436   0.974  18.465  0.00  0.00    +0.000 C 
ATOM     60  C   UNL     1     -36.173   1.283  17.722  0.00  0.00    +0.000 C 
ATOM     61  C   UNL     1     -36.024   0.057  16.807  0.00  0.00    +0.000 C 
ATOM     62  H   UNL     1     -37.127  -0.989  13.803  0.00  0.00    +0.000 HD
ENDBRANCH  40  49
ENDBRANCH   6  35
TORSDOF 4
ENDMDL
