MODEL 1
REMARK VINA RESULT:      -7.6      0.000      0.000
REMARK  Name = 
REMARK  5 active torsions:
REMARK  status: ('A' for Active; 'I' for Inactive)
REMARK    1  A    between atoms: S_2  and  N_4
REMARK    2  A    between atoms: S_2  and  C_16
REMARK    3  A    between atoms: N_4  and  S_5
REMARK    4  A    between atoms: S_5  and  C_6
REMARK    5  A    between atoms: C_20  and  C_21
REMARK                            x       y       z     vdW  Elec       q    Type
REMARK                         _______ _______ _______ _____ _____    ______ ____
ROOT
ATOM      1  O   UNL     1       9.225  40.022  34.186  0.00  0.00    +0.000 OA
ATOM      2  S   UNL     1       9.171  41.147  33.276  0.00  0.00    +0.000 S 
ATOM      3  O   UNL     1       8.002  41.995  33.169  0.00  0.00    +0.000 OA
ENDROOT
BRANCH   2   4
ATOM      4  C   UNL     1       9.516  40.503  31.655  0.00  0.00    +0.000 A 
ATOM      5  C   UNL     1       8.590  40.704  30.631  0.00  0.00    +0.000 A 
ATOM      6  C   UNL     1       8.864  40.206  29.359  0.00  0.00    +0.000 A 
ATOM      7  C   UNL     1      10.055  39.511  29.116  0.00  0.00    +0.000 A 
ATOM      8  C   UNL     1      11.003  39.313  30.136  0.00  0.00    +0.000 A 
ATOM      9  C   UNL     1      10.719  39.830  31.412  0.00  0.00    +0.000 A 
BRANCH   8  10
ATOM     10  C   UNL     1      12.241  38.536  29.940  0.00  0.00    +0.000 A 
ATOM     11  N   UNL     1      12.742  38.248  28.752  0.00  0.00    +0.000 NA
ATOM     12  C   UNL     1      13.931  37.560  28.885  0.00  0.00    +0.000 A 
ATOM     13  C   UNL     1      14.325  37.302  30.178  0.00  0.00    +0.000 A 
ATOM     14  S   UNL     1      13.162  37.927  31.267  0.00  0.00    +0.000 S 
ENDBRANCH   8  10
ENDBRANCH   2   4
BRANCH   2  15
ATOM     15  N   UNL     1      10.525  42.182  33.535  0.00  0.00    +0.000 NA
ATOM     16  H   UNL     1      11.237  41.954  32.837  0.00  0.00    +0.000 HD
BRANCH  15  17
ATOM     17  S   UNL     1       9.990  43.825  33.330  0.00  0.00    +0.000 S 
BRANCH  17  18
ATOM     18  C   UNL     1      10.528  44.243  31.679  0.00  0.00    +0.000 A 
ATOM     19  C   UNL     1      11.753  44.852  31.393  0.00  0.00    +0.000 A 
ATOM     20  C   UNL     1      12.061  45.245  30.086  0.00  0.00    +0.000 A 
ATOM     21  C   UNL     1      11.151  45.038  29.038  0.00  0.00    +0.000 A 
ATOM     22  C   UNL     1      11.463  45.559  27.651  0.00  0.00    +0.000 C 
ATOM     23  N   UNL     1      10.630  44.967  26.593  0.00  0.00    +0.000 NA
ATOM     24  C   UNL     1       9.215  45.051  26.973  0.00  0.00    +0.000 C 
ATOM     25  C   UNL     1       8.916  44.201  28.213  0.00  0.00    +0.000 C 
ATOM     26  C   UNL     1       9.915  44.436  29.320  0.00  0.00    +0.000 A 
ATOM     27  C   UNL     1       9.624  44.024  30.631  0.00  0.00    +0.000 A 
ATOM     28  H   UNL     1      10.890  43.984  26.506  0.00  0.00    +0.000 HD
ENDBRANCH  17  18
ENDBRANCH  15  17
ENDBRANCH   2  15
TORSDOF 5
ENDMDL
MODEL 2
REMARK VINA RESULT:      -6.8      3.769      6.602
REMARK  Name = 
REMARK  5 active torsions:
REMARK  status: ('A' for Active; 'I' for Inactive)
REMARK    1  A    between atoms: S_2  and  N_4
REMARK    2  A    between atoms: S_2  and  C_16
REMARK    3  A    between atoms: N_4  and  S_5
REMARK    4  A    between atoms: S_5  and  C_6
REMARK    5  A    between atoms: C_20  and  C_21
REMARK                            x       y       z     vdW  Elec       q    Type
REMARK                         _______ _______ _______ _____ _____    ______ ____
ROOT
ATOM      1  O   UNL     1       8.024  43.612  30.874  0.00  0.00    +0.000 OA
ATOM      2  S   UNL     1       9.309  43.071  31.262  0.00  0.00    +0.000 S 
ATOM      3  O   UNL     1      10.547  43.791  31.043  0.00  0.00    +0.000 OA
ENDROOT
BRANCH   2   4
ATOM      4  C   UNL     1       9.458  41.494  30.454  0.00  0.00    +0.000 A 
ATOM      5  C   UNL     1       8.410  41.037  29.654  0.00  0.00    +0.000 A 
ATOM      6  C   UNL     1       8.530  39.804  29.015  0.00  0.00    +0.000 A 
ATOM      7  C   UNL     1       9.690  39.037  29.176  0.00  0.00    +0.000 A 
ATOM      8  C   UNL     1      10.759  39.493  29.967  0.00  0.00    +0.000 A 
ATOM      9  C   UNL     1      10.630  40.742  30.599  0.00  0.00    +0.000 A 
BRANCH   8  10
ATOM     10  C   UNL     1      11.973  38.691  30.214  0.00  0.00    +0.000 A 
ATOM     11  N   UNL     1      12.506  38.522  31.411  0.00  0.00    +0.000 NA
ATOM     12  C   UNL     1      13.597  37.682  31.337  0.00  0.00    +0.000 A 
ATOM     13  C   UNL     1      13.913  37.228  30.077  0.00  0.00    +0.000 A 
ATOM     14  S   UNL     1      12.816  37.887  28.940  0.00  0.00    +0.000 S 
ENDBRANCH   8  10
ENDBRANCH   2   4
BRANCH   2  15
ATOM     15  N   UNL     1       9.280  42.610  32.924  0.00  0.00    +0.000 NA
ATOM     16  H   UNL     1       9.543  43.424  33.484  0.00  0.00    +0.000 HD
BRANCH  15  17
ATOM     17  S   UNL     1       7.658  42.115  33.313  0.00  0.00    +0.000 S 
BRANCH  17  18
ATOM     18  C   UNL     1       7.890  40.752  34.443  0.00  0.00    +0.000 A 
ATOM     19  C   UNL     1       8.884  39.779  34.293  0.00  0.00    +0.000 A 
ATOM     20  C   UNL     1       8.938  38.682  35.161  0.00  0.00    +0.000 A 
ATOM     21  C   UNL     1       8.001  38.535  36.195  0.00  0.00    +0.000 A 
ATOM     22  C   UNL     1       8.018  37.292  37.060  0.00  0.00    +0.000 C 
ATOM     23  N   UNL     1       7.253  37.427  38.309  0.00  0.00    +0.000 NA
ATOM     24  C   UNL     1       5.912  37.945  38.012  0.00  0.00    +0.000 C 
ATOM     25  C   UNL     1       5.975  39.370  37.449  0.00  0.00    +0.000 C 
ATOM     26  C   UNL     1       6.996  39.503  36.345  0.00  0.00    +0.000 A 
ATOM     27  C   UNL     1       6.963  40.612  35.485  0.00  0.00    +0.000 A 
ATOM     28  H   UNL     1       7.742  38.097  38.903  0.00  0.00    +0.000 HD
ENDBRANCH  17  18
ENDBRANCH  15  17
ENDBRANCH   2  15
TORSDOF 5
ENDMDL
MODEL 3
REMARK VINA RESULT:      -6.7      2.663      7.013
REMARK  Name = 
REMARK  5 active torsions:
REMARK  status: ('A' for Active; 'I' for Inactive)
REMARK    1  A    between atoms: S_2  and  N_4
REMARK    2  A    between atoms: S_2  and  C_16
REMARK    3  A    between atoms: N_4  and  S_5
REMARK    4  A    between atoms: S_5  and  C_6
REMARK    5  A    between atoms: C_20  and  C_21
REMARK                            x       y       z     vdW  Elec       q    Type
REMARK                         _______ _______ _______ _____ _____    ______ ____
ROOT
ATOM      1  O   UNL     1       7.923  44.748  28.200  0.00  0.00    +0.000 OA
ATOM      2  S   UNL     1       8.261  43.640  29.069  0.00  0.00    +0.000 S 
ATOM      3  O   UNL     1       7.274  42.987  29.904  0.00  0.00    +0.000 OA
ENDROOT
BRANCH   2   4
ATOM      4  C   UNL     1       9.566  44.212  30.133  0.00  0.00    +0.000 A 
ATOM      5  C   UNL     1      10.816  44.498  29.584  0.00  0.00    +0.000 A 
ATOM      6  C   UNL     1      11.837  44.953  30.416  0.00  0.00    +0.000 A 
ATOM      7  C   UNL     1      11.606  45.121  31.787  0.00  0.00    +0.000 A 
ATOM      8  C   UNL     1      10.346  44.851  32.351  0.00  0.00    +0.000 A 
ATOM      9  C   UNL     1       9.322  44.402  31.499  0.00  0.00    +0.000 A 
BRANCH   8  10
ATOM     10  C   UNL     1      10.076  44.955  33.797  0.00  0.00    +0.000 A 
ATOM     11  N   UNL     1       9.467  45.987  34.353  0.00  0.00    +0.000 NA
ATOM     12  C   UNL     1       9.305  45.778  35.708  0.00  0.00    +0.000 A 
ATOM     13  C   UNL     1       9.815  44.594  36.189  0.00  0.00    +0.000 A 
ATOM     14  S   UNL     1      10.535  43.716  34.908  0.00  0.00    +0.000 S 
ENDBRANCH   8  10
ENDBRANCH   2   4
BRANCH   2  15
ATOM     15  N   UNL     1       9.060  42.405  28.170  0.00  0.00    +0.000 NA
ATOM     16  H   UNL     1      10.050  42.417  28.424  0.00  0.00    +0.000 HD
BRANCH  15  17
ATOM     17  S   UNL     1       8.348  40.879  28.607  0.00  0.00    +0.000 S 
BRANCH  17  18
ATOM     18  C   UNL     1       9.626  40.073  29.559  0.00  0.00    +0.000 A 
ATOM     19  C   UNL     1       9.882  40.350  30.906  0.00  0.00    +0.000 A 
ATOM     20  C   UNL     1      10.968  39.754  31.558  0.00  0.00    +0.000 A 
ATOM     21  C   UNL     1      11.820  38.870  30.877  0.00  0.00    +0.000 A 
ATOM     22  C   UNL     1      13.045  38.314  31.572  0.00  0.00    +0.000 C 
ATOM     23  N   UNL     1      13.628  37.142  30.901  0.00  0.00    +0.000 NA
ATOM     24  C   UNL     1      13.815  37.434  29.475  0.00  0.00    +0.000 C 
ATOM     25  C   UNL     1      12.473  37.649  28.766  0.00  0.00    +0.000 C 
ATOM     26  C   UNL     1      11.574  38.595  29.523  0.00  0.00    +0.000 A 
ATOM     27  C   UNL     1      10.468  39.180  28.883  0.00  0.00    +0.000 A 
ATOM     28  H   UNL     1      12.969  36.369  30.996  0.00  0.00    +0.000 HD
ENDBRANCH  17  18
ENDBRANCH  15  17
ENDBRANCH   2  15
TORSDOF 5
ENDMDL
MODEL 4
REMARK VINA RESULT:      -6.4      3.029      6.697
REMARK  Name = 
REMARK  5 active torsions:
REMARK  status: ('A' for Active; 'I' for Inactive)
REMARK    1  A    between atoms: S_2  and  N_4
REMARK    2  A    between atoms: S_2  and  C_16
REMARK    3  A    between atoms: N_4  and  S_5
REMARK    4  A    between atoms: S_5  and  C_6
REMARK    5  A    between atoms: C_20  and  C_21
REMARK                            x       y       z     vdW  Elec       q    Type
REMARK                         _______ _______ _______ _____ _____    ______ ____
ROOT
ATOM      1  O   UNL     1       8.606  45.673  26.647  0.00  0.00    +0.000 OA
ATOM      2  S   UNL     1       8.520  44.620  27.638  0.00  0.00    +0.000 S 
ATOM      3  O   UNL     1       7.335  44.417  28.445  0.00  0.00    +0.000 OA
ENDROOT
BRANCH   2   4
ATOM      4  C   UNL     1       9.889  44.858  28.747  0.00  0.00    +0.000 A 
ATOM      5  C   UNL     1      11.149  45.147  28.223  0.00  0.00    +0.000 A 
ATOM      6  C   UNL     1      12.220  45.340  29.093  0.00  0.00    +0.000 A 
ATOM      7  C   UNL     1      12.030  45.245  30.477  0.00  0.00    +0.000 A 
ATOM      8  C   UNL     1      10.762  44.968  31.019  0.00  0.00    +0.000 A 
ATOM      9  C   UNL     1       9.688  44.785  30.131  0.00  0.00    +0.000 A 
BRANCH   8  10
ATOM     10  C   UNL     1      10.528  44.798  32.466  0.00  0.00    +0.000 A 
ATOM     11  N   UNL     1       9.364  45.022  33.049  0.00  0.00    +0.000 NA
ATOM     12  C   UNL     1       9.434  44.725  34.394  0.00  0.00    +0.000 A 
ATOM     13  C   UNL     1      10.663  44.298  34.843  0.00  0.00    +0.000 A 
ATOM     14  S   UNL     1      11.774  44.279  33.542  0.00  0.00    +0.000 S 
ENDBRANCH   8  10
ENDBRANCH   2   4
BRANCH   2  15
ATOM     15  N   UNL     1       8.911  43.102  26.921  0.00  0.00    +0.000 NA
ATOM     16  H   UNL     1       9.906  42.922  27.080  0.00  0.00    +0.000 HD
BRANCH  15  17
ATOM     17  S   UNL     1       7.951  41.879  27.702  0.00  0.00    +0.000 S 
BRANCH  17  18
ATOM     18  C   UNL     1       9.060  41.177  28.912  0.00  0.00    +0.000 A 
ATOM     19  C   UNL     1      10.036  40.222  28.610  0.00  0.00    +0.000 A 
ATOM     20  C   UNL     1      10.798  39.641  29.630  0.00  0.00    +0.000 A 
ATOM     21  C   UNL     1      10.601  40.000  30.972  0.00  0.00    +0.000 A 
ATOM     22  C   UNL     1      11.366  39.288  32.067  0.00  0.00    +0.000 C 
ATOM     23  N   UNL     1      11.351  39.994  33.357  0.00  0.00    +0.000 NA
ATOM     24  C   UNL     1       9.971  40.348  33.709  0.00  0.00    +0.000 C 
ATOM     25  C   UNL     1       9.382  41.358  32.718  0.00  0.00    +0.000 C 
ATOM     26  C   UNL     1       9.616  40.951  31.283  0.00  0.00    +0.000 A 
ATOM     27  C   UNL     1       8.871  41.547  30.251  0.00  0.00    +0.000 A 
ATOM     28  H   UNL     1      11.895  40.851  33.250  0.00  0.00    +0.000 HD
ENDBRANCH  17  18
ENDBRANCH  15  17
ENDBRANCH   2  15
TORSDOF 5
ENDMDL
MODEL 5
REMARK VINA RESULT:      -5.9      3.355      3.679
REMARK  Name = 
REMARK  5 active torsions:
REMARK  status: ('A' for Active; 'I' for Inactive)
REMARK    1  A    between atoms: S_2  and  N_4
REMARK    2  A    between atoms: S_2  and  C_16
REMARK    3  A    between atoms: N_4  and  S_5
REMARK    4  A    between atoms: S_5  and  C_6
REMARK    5  A    between atoms: C_20  and  C_21
REMARK                            x       y       z     vdW  Elec       q    Type
REMARK                         _______ _______ _______ _____ _____    ______ ____
ROOT
ATOM      1  O   UNL     1      11.583  44.509  30.663  0.00  0.00    +0.000 OA
ATOM      2  S   UNL     1      10.593  43.981  31.578  0.00  0.00    +0.000 S 
ATOM      3  O   UNL     1      10.851  43.841  32.996  0.00  0.00    +0.000 OA
ENDROOT
BRANCH   2   4
ATOM      4  C   UNL     1      10.134  42.380  30.957  0.00  0.00    +0.000 A 
ATOM      5  C   UNL     1       8.797  42.124  30.654  0.00  0.00    +0.000 A 
ATOM      6  C   UNL     1       8.439  40.871  30.160  0.00  0.00    +0.000 A 
ATOM      7  C   UNL     1       9.412  39.883  29.972  0.00  0.00    +0.000 A 
ATOM      8  C   UNL     1      10.766  40.132  30.259  0.00  0.00    +0.000 A 
ATOM      9  C   UNL     1      11.116  41.403  30.748  0.00  0.00    +0.000 A 
BRANCH   8  10
ATOM     10  C   UNL     1      11.816  39.103  30.134  0.00  0.00    +0.000 A 
ATOM     11  N   UNL     1      12.253  38.644  28.975  0.00  0.00    +0.000 NA
ATOM     12  C   UNL     1      13.271  37.733  29.172  0.00  0.00    +0.000 A 
ATOM     13  C   UNL     1      13.593  37.479  30.486  0.00  0.00    +0.000 A 
ATOM     14  S   UNL     1      12.579  38.398  31.513  0.00  0.00    +0.000 S 
ENDBRANCH   8  10
ENDBRANCH   2   4
BRANCH   2  15
ATOM     15  N   UNL     1       9.115  44.854  31.417  0.00  0.00    +0.000 NA
ATOM     16  H   UNL     1       8.342  44.191  31.514  0.00  0.00    +0.000 HD
BRANCH  15  17
ATOM     17  S   UNL     1       9.052  46.038  32.690  0.00  0.00    +0.000 S 
BRANCH  17  18
ATOM     18  C   UNL     1      10.002  47.406  32.045  0.00  0.00    +0.000 A 
ATOM     19  C   UNL     1      10.938  48.123  32.797  0.00  0.00    +0.000 A 
ATOM     20  C   UNL     1      11.568  49.249  32.254  0.00  0.00    +0.000 A 
ATOM     21  C   UNL     1      11.276  49.682  30.952  0.00  0.00    +0.000 A 
ATOM     22  C   UNL     1      11.895  50.958  30.421  0.00  0.00    +0.000 C 
ATOM     23  N   UNL     1      11.810  51.096  28.959  0.00  0.00    +0.000 NA
ATOM     24  C   UNL     1      10.429  50.858  28.521  0.00  0.00    +0.000 C 
ATOM     25  C   UNL     1       9.996  49.413  28.791  0.00  0.00    +0.000 C 
ATOM     26  C   UNL     1      10.330  48.971  30.196  0.00  0.00    +0.000 A 
ATOM     27  C   UNL     1       9.720  47.829  30.739  0.00  0.00    +0.000 A 
ATOM     28  H   UNL     1      12.414  50.386  28.544  0.00  0.00    +0.000 HD
ENDBRANCH  17  18
ENDBRANCH  15  17
ENDBRANCH   2  15
TORSDOF 5
ENDMDL
MODEL 6
REMARK VINA RESULT:      -5.4      3.073      6.705
REMARK  Name = 
REMARK  5 active torsions:
REMARK  status: ('A' for Active; 'I' for Inactive)
REMARK    1  A    between atoms: S_2  and  N_4
REMARK    2  A    between atoms: S_2  and  C_16
REMARK    3  A    between atoms: N_4  and  S_5
REMARK    4  A    between atoms: S_5  and  C_6
REMARK    5  A    between atoms: C_20  and  C_21
REMARK                            x       y       z     vdW  Elec       q    Type
REMARK                         _______ _______ _______ _____ _____    ______ ____
ROOT
ATOM      1  O   UNL     1       8.817  47.383  32.683  0.00  0.00    +0.000 OA
ATOM      2  S   UNL     1      10.172  46.875  32.723  0.00  0.00    +0.000 S 
ATOM      3  O   UNL     1      11.286  47.687  33.168  0.00  0.00    +0.000 OA
ENDROOT
BRANCH   2   4
ATOM      4  C   UNL     1      10.547  46.305  31.082  0.00  0.00    +0.000 A 
ATOM      5  C   UNL     1      11.680  45.517  30.876  0.00  0.00    +0.000 A 
ATOM      6  C   UNL     1      11.969  45.065  29.590  0.00  0.00    +0.000 A 
ATOM      7  C   UNL     1      11.131  45.399  28.520  0.00  0.00    +0.000 A 
ATOM      8  C   UNL     1       9.978  46.181  28.716  0.00  0.00    +0.000 A 
ATOM      9  C   UNL     1       9.692  46.623  30.019  0.00  0.00    +0.000 A 
BRANCH   8  10
ATOM     10  C   UNL     1       9.101  46.608  27.609  0.00  0.00    +0.000 A 
ATOM     11  N   UNL     1       9.523  46.786  26.370  0.00  0.00    +0.000 NA
ATOM     12  C   UNL     1       8.470  47.129  25.547  0.00  0.00    +0.000 A 
ATOM     13  C   UNL     1       7.246  47.237  26.166  0.00  0.00    +0.000 A 
ATOM     14  S   UNL     1       7.418  46.913  27.838  0.00  0.00    +0.000 S 
ENDBRANCH   8  10
ENDBRANCH   2   4
BRANCH   2  15
ATOM     15  N   UNL     1      10.226  45.406  33.624  0.00  0.00    +0.000 NA
ATOM     16  H   UNL     1      10.207  45.642  34.619  0.00  0.00    +0.000 HD
BRANCH  15  17
ATOM     17  S   UNL     1       8.821  44.469  33.204  0.00  0.00    +0.000 S 
BRANCH  17  18
ATOM     18  C   UNL     1       9.499  43.011  32.429  0.00  0.00    +0.000 A 
ATOM     19  C   UNL     1      10.736  42.454  32.770  0.00  0.00    +0.000 A 
ATOM     20  C   UNL     1      11.249  41.371  32.047  0.00  0.00    +0.000 A 
ATOM     21  C   UNL     1      10.539  40.823  30.969  0.00  0.00    +0.000 A 
ATOM     22  C   UNL     1      11.156  39.717  30.140  0.00  0.00    +0.000 C 
ATOM     23  N   UNL     1      10.188  38.991  29.302  0.00  0.00    +0.000 NA
ATOM     24  C   UNL     1       9.382  39.950  28.538  0.00  0.00    +0.000 C 
ATOM     25  C   UNL     1       8.513  40.813  29.460  0.00  0.00    +0.000 C 
ATOM     26  C   UNL     1       9.301  41.382  30.616  0.00  0.00    +0.000 A 
ATOM     27  C   UNL     1       8.782  42.454  31.361  0.00  0.00    +0.000 A 
ATOM     28  H   UNL     1       9.574  38.464  29.923  0.00  0.00    +0.000 HD
ENDBRANCH  17  18
ENDBRANCH  15  17
ENDBRANCH   2  15
TORSDOF 5
ENDMDL
