MODEL 1
REMARK VINA RESULT:      -6.1      0.000      0.000
REMARK  Name = 
REMARK  14 active torsions:
REMARK  status: ('A' for Active; 'I' for Inactive)
REMARK    1  A    between atoms: C_1  and  O_2
REMARK    2  A    between atoms: O_2  and  C_3
REMARK    3  A    between atoms: C_3  and  C_4
REMARK    4  A    between atoms: C_4  and  O_5
REMARK    5  A    between atoms: O_5  and  C_6
REMARK    6  A    between atoms: C_6  and  C_7
REMARK    7  A    between atoms: C_6  and  C_8
REMARK    8  A    between atoms: C_6  and  C_9
REMARK    9  A    between atoms: C_10  and  S_11
REMARK   10  A    between atoms: S_11  and  C_14
REMARK   11  A    between atoms: C_21  and  C_22
REMARK   12  A    between atoms: C_22  and  C_23
REMARK   13  A    between atoms: C_22  and  C_24
REMARK   14  A    between atoms: C_22  and  O_25
REMARK                            x       y       z     vdW  Elec       q    Type
REMARK                         _______ _______ _______ _____ _____    ______ ____
ROOT
ATOM      1  C   UNL     1       8.211  41.142  31.359  0.00  0.00    +0.000 A 
ATOM      2  C   UNL     1       9.316  41.206  32.242  0.00  0.00    +0.000 A 
ATOM      3  C   UNL     1       9.246  40.541  33.503  0.00  0.00    +0.000 A 
ATOM      4  C   UNL     1       8.128  39.812  33.936  0.00  0.00    +0.000 A 
ATOM      5  C   UNL     1       7.026  39.790  33.089  0.00  0.00    +0.000 A 
ATOM      6  C   UNL     1       7.080  40.415  31.843  0.00  0.00    +0.000 A 
ENDROOT
BRANCH   1   7
ATOM      7  C   UNL     1       8.002  41.695  29.932  0.00  0.00    +0.000 C 
ATOM      8  C   UNL     1       7.903  43.193  29.664  0.00  0.00    +0.000 C 
ATOM      9  C   UNL     1       6.643  41.132  29.409  0.00  0.00    +0.000 C 
BRANCH   7  10
ATOM     10  O   UNL     1       9.009  41.141  29.042  0.00  0.00    +0.000 OA
BRANCH  10  11
ATOM     11  C   UNL     1       8.741  39.818  28.553  0.00  0.00    +0.000 C 
BRANCH  11  12
ATOM     12  C   UNL     1       9.864  38.851  28.945  0.00  0.00    +0.000 C 
BRANCH  12  14
ATOM     13  C   UNL     1       8.203  37.440  28.039  0.00  0.00    +0.000 C 
ATOM     14  O   UNL     1       9.528  37.517  28.549  0.00  0.00    +0.000 OA
ENDBRANCH  12  14
ENDBRANCH  11  12
ENDBRANCH  10  11
ENDBRANCH   7  10
ENDBRANCH   1   7
BRANCH   2  15
ATOM     15  S   UNL     1      10.959  41.889  31.905  0.00  0.00    +0.000 S 
ATOM     16  O   UNL     1      11.669  41.956  33.175  0.00  0.00    +0.000 OA
ATOM     17  O   UNL     1      11.504  41.061  30.846  0.00  0.00    +0.000 OA
BRANCH  15  18
ATOM     18  C   UNL     1      10.951  43.577  31.350  0.00  0.00    +0.000 A 
ATOM     19  C   UNL     1      11.505  43.932  30.118  0.00  0.00    +0.000 A 
ATOM     20  C   UNL     1      11.587  45.290  29.778  0.00  0.00    +0.000 A 
ATOM     21  C   UNL     1      11.120  46.270  30.656  0.00  0.00    +0.000 A 
ATOM     22  C   UNL     1      10.514  45.907  31.859  0.00  0.00    +0.000 A 
ATOM     23  C   UNL     1      10.420  44.558  32.203  0.00  0.00    +0.000 A 
ENDBRANCH  15  18
ENDBRANCH   2  15
BRANCH   4  24
ATOM     24  C   UNL     1       8.087  39.086  35.279  0.00  0.00    +0.000 C 
ATOM     25  C   UNL     1       7.883  40.015  36.484  0.00  0.00    +0.000 C 
ATOM     26  C   UNL     1       7.004  38.006  35.248  0.00  0.00    +0.000 C 
BRANCH  24  27
ATOM     27  O   UNL     1       9.338  38.422  35.506  0.00  0.00    +0.000 OA
ATOM     28  H   UNL     1       9.765  38.316  34.637  0.00  0.00    +0.000 HD
ENDBRANCH  24  27
ENDBRANCH   4  24
TORSDOF 9
ENDMDL
MODEL 2
REMARK VINA RESULT:      -5.5      2.788      7.341
REMARK  Name = 
REMARK  14 active torsions:
REMARK  status: ('A' for Active; 'I' for Inactive)
REMARK    1  A    between atoms: C_1  and  O_2
REMARK    2  A    between atoms: O_2  and  C_3
REMARK    3  A    between atoms: C_3  and  C_4
REMARK    4  A    between atoms: C_4  and  O_5
REMARK    5  A    between atoms: O_5  and  C_6
REMARK    6  A    between atoms: C_6  and  C_7
REMARK    7  A    between atoms: C_6  and  C_8
REMARK    8  A    between atoms: C_6  and  C_9
REMARK    9  A    between atoms: C_10  and  S_11
REMARK   10  A    between atoms: S_11  and  C_14
REMARK   11  A    between atoms: C_21  and  C_22
REMARK   12  A    between atoms: C_22  and  C_23
REMARK   13  A    between atoms: C_22  and  C_24
REMARK   14  A    between atoms: C_22  and  O_25
REMARK                            x       y       z     vdW  Elec       q    Type
REMARK                         _______ _______ _______ _____ _____    ______ ____
ROOT
ATOM      1  C   UNL     1      10.960  44.649  32.599  0.00  0.00    +0.000 A 
ATOM      2  C   UNL     1      10.471  43.617  31.762  0.00  0.00    +0.000 A 
ATOM      3  C   UNL     1      10.363  43.845  30.357  0.00  0.00    +0.000 A 
ATOM      4  C   UNL     1      10.716  45.054  29.737  0.00  0.00    +0.000 A 
ATOM      5  C   UNL     1      11.150  46.082  30.565  0.00  0.00    +0.000 A 
ATOM      6  C   UNL     1      11.283  45.874  31.938  0.00  0.00    +0.000 A 
ENDROOT
BRANCH   1   7
ATOM      7  C   UNL     1      11.242  44.694  34.117  0.00  0.00    +0.000 C 
ATOM      8  C   UNL     1      11.243  46.010  34.889  0.00  0.00    +0.000 C 
ATOM      9  C   UNL     1      12.681  44.130  34.341  0.00  0.00    +0.000 C 
BRANCH   7  10
ATOM     10  O   UNL     1      10.360  43.765  34.805  0.00  0.00    +0.000 OA
BRANCH  10  11
ATOM     11  C   UNL     1       9.569  44.331  35.861  0.00  0.00    +0.000 C 
BRANCH  11  12
ATOM     12  C   UNL     1       8.076  44.277  35.516  0.00  0.00    +0.000 C 
BRANCH  12  14
ATOM     13  C   UNL     1       8.217  43.106  37.561  0.00  0.00    +0.000 C 
ATOM     14  O   UNL     1       7.347  43.654  36.579  0.00  0.00    +0.000 OA
ENDBRANCH  12  14
ENDBRANCH  11  12
ENDBRANCH  10  11
ENDBRANCH   7  10
ENDBRANCH   1   7
BRANCH   2  15
ATOM     15  S   UNL     1      10.122  41.899  32.218  0.00  0.00    +0.000 S 
ATOM     16  O   UNL     1      11.291  41.393  32.924  0.00  0.00    +0.000 OA
ATOM     17  O   UNL     1       8.852  41.943  32.916  0.00  0.00    +0.000 OA
BRANCH  15  18
ATOM     18  C   UNL     1       9.966  40.793  30.837  0.00  0.00    +0.000 A 
ATOM     19  C   UNL     1       8.737  40.608  30.198  0.00  0.00    +0.000 A 
ATOM     20  C   UNL     1       8.635  39.634  29.195  0.00  0.00    +0.000 A 
ATOM     21  C   UNL     1       9.744  38.864  28.839  0.00  0.00    +0.000 A 
ATOM     22  C   UNL     1      10.983  39.092  29.438  0.00  0.00    +0.000 A 
ATOM     23  C   UNL     1      11.097  40.065  30.432  0.00  0.00    +0.000 A 
ENDBRANCH  15  18
ENDBRANCH   2  15
BRANCH   4  24
ATOM     24  C   UNL     1      10.616  45.265  28.228  0.00  0.00    +0.000 C 
ATOM     25  C   UNL     1       9.516  44.435  27.552  0.00  0.00    +0.000 C 
ATOM     26  C   UNL     1      10.423  46.753  27.928  0.00  0.00    +0.000 C 
BRANCH  24  27
ATOM     27  O   UNL     1      11.844  44.866  27.603  0.00  0.00    +0.000 OA
ATOM     28  H   UNL     1      11.638  44.667  26.672  0.00  0.00    +0.000 HD
ENDBRANCH  24  27
ENDBRANCH   4  24
TORSDOF 9
ENDMDL
MODEL 3
REMARK VINA RESULT:      -4.7      2.365      5.326
REMARK  Name = 
REMARK  14 active torsions:
REMARK  status: ('A' for Active; 'I' for Inactive)
REMARK    1  A    between atoms: C_1  and  O_2
REMARK    2  A    between atoms: O_2  and  C_3
REMARK    3  A    between atoms: C_3  and  C_4
REMARK    4  A    between atoms: C_4  and  O_5
REMARK    5  A    between atoms: O_5  and  C_6
REMARK    6  A    between atoms: C_6  and  C_7
REMARK    7  A    between atoms: C_6  and  C_8
REMARK    8  A    between atoms: C_6  and  C_9
REMARK    9  A    between atoms: C_10  and  S_11
REMARK   10  A    between atoms: S_11  and  C_14
REMARK   11  A    between atoms: C_21  and  C_22
REMARK   12  A    between atoms: C_22  and  C_23
REMARK   13  A    between atoms: C_22  and  C_24
REMARK   14  A    between atoms: C_22  and  O_25
REMARK                            x       y       z     vdW  Elec       q    Type
REMARK                         _______ _______ _______ _____ _____    ______ ____
ROOT
ATOM      1  C   UNL     1       7.714  40.614  31.816  0.00  0.00    +0.000 A 
ATOM      2  C   UNL     1       7.461  40.430  33.197  0.00  0.00    +0.000 A 
ATOM      3  C   UNL     1       6.124  40.201  33.640  0.00  0.00    +0.000 A 
ATOM      4  C   UNL     1       5.017  40.147  32.778  0.00  0.00    +0.000 A 
ATOM      5  C   UNL     1       5.260  40.376  31.430  0.00  0.00    +0.000 A 
ATOM      6  C   UNL     1       6.562  40.581  30.971  0.00  0.00    +0.000 A 
ENDROOT
BRANCH   1   7
ATOM      7  C   UNL     1       9.028  40.821  31.031  0.00  0.00    +0.000 C 
ATOM      8  C   UNL     1      10.292  40.039  31.371  0.00  0.00    +0.000 C 
ATOM      9  C   UNL     1       9.451  42.313  31.216  0.00  0.00    +0.000 C 
BRANCH   7  10
ATOM     10  O   UNL     1       8.773  40.675  29.607  0.00  0.00    +0.000 OA
BRANCH  10  11
ATOM     11  C   UNL     1       9.497  39.620  28.955  0.00  0.00    +0.000 C 
BRANCH  11  12
ATOM     12  C   UNL     1       8.538  38.573  28.377  0.00  0.00    +0.000 C 
BRANCH  12  14
ATOM     13  C   UNL     1       8.202  36.256  28.077  0.00  0.00    +0.000 C 
ATOM     14  O   UNL     1       9.122  37.270  28.461  0.00  0.00    +0.000 OA
ENDBRANCH  12  14
ENDBRANCH  11  12
ENDBRANCH  10  11
ENDBRANCH   7  10
ENDBRANCH   1   7
BRANCH   2  15
ATOM     15  S   UNL     1       8.677  40.248  34.527  0.00  0.00    +0.000 S 
ATOM     16  O   UNL     1       9.447  39.044  34.247  0.00  0.00    +0.000 OA
ATOM     17  O   UNL     1       9.371  41.520  34.583  0.00  0.00    +0.000 OA
BRANCH  15  18
ATOM     18  C   UNL     1       7.971  39.922  36.124  0.00  0.00    +0.000 A 
ATOM     19  C   UNL     1       7.638  40.966  36.990  0.00  0.00    +0.000 A 
ATOM     20  C   UNL     1       7.201  40.657  38.286  0.00  0.00    +0.000 A 
ATOM     21  C   UNL     1       7.098  39.329  38.702  0.00  0.00    +0.000 A 
ATOM     22  C   UNL     1       7.376  38.289  37.815  0.00  0.00    +0.000 A 
ATOM     23  C   UNL     1       7.803  38.585  36.520  0.00  0.00    +0.000 A 
ENDBRANCH  15  18
ENDBRANCH   2  15
BRANCH   4  24
ATOM     24  C   UNL     1       3.599  39.874  33.274  0.00  0.00    +0.000 C 
ATOM     25  C   UNL     1       3.144  40.803  34.408  0.00  0.00    +0.000 C 
ATOM     26  C   UNL     1       2.621  39.945  32.100  0.00  0.00    +0.000 C 
BRANCH  24  27
ATOM     27  O   UNL     1       3.522  38.544  33.806  0.00  0.00    +0.000 OA
ATOM     28  H   UNL     1       4.211  38.020  33.360  0.00  0.00    +0.000 HD
ENDBRANCH  24  27
ENDBRANCH   4  24
TORSDOF 9
ENDMDL
MODEL 4
REMARK VINA RESULT:      -4.4      2.770      6.800
REMARK  Name = 
REMARK  14 active torsions:
REMARK  status: ('A' for Active; 'I' for Inactive)
REMARK    1  A    between atoms: C_1  and  O_2
REMARK    2  A    between atoms: O_2  and  C_3
REMARK    3  A    between atoms: C_3  and  C_4
REMARK    4  A    between atoms: C_4  and  O_5
REMARK    5  A    between atoms: O_5  and  C_6
REMARK    6  A    between atoms: C_6  and  C_7
REMARK    7  A    between atoms: C_6  and  C_8
REMARK    8  A    between atoms: C_6  and  C_9
REMARK    9  A    between atoms: C_10  and  S_11
REMARK   10  A    between atoms: S_11  and  C_14
REMARK   11  A    between atoms: C_21  and  C_22
REMARK   12  A    between atoms: C_22  and  C_23
REMARK   13  A    between atoms: C_22  and  C_24
REMARK   14  A    between atoms: C_22  and  O_25
REMARK                            x       y       z     vdW  Elec       q    Type
REMARK                         _______ _______ _______ _____ _____    ______ ____
ROOT
ATOM      1  C   UNL     1      10.062  44.799  32.745  0.00  0.00    +0.000 A 
ATOM      2  C   UNL     1       9.571  45.261  31.501  0.00  0.00    +0.000 A 
ATOM      3  C   UNL     1       9.610  46.658  31.207  0.00  0.00    +0.000 A 
ATOM      4  C   UNL     1      10.114  47.624  32.091  0.00  0.00    +0.000 A 
ATOM      5  C   UNL     1      10.551  47.174  33.330  0.00  0.00    +0.000 A 
ATOM      6  C   UNL     1      10.541  45.812  33.631  0.00  0.00    +0.000 A 
ENDROOT
BRANCH   1   7
ATOM      7  C   UNL     1      10.207  43.376  33.327  0.00  0.00    +0.000 C 
ATOM      8  C   UNL     1       8.990  42.553  33.737  0.00  0.00    +0.000 C 
ATOM      9  C   UNL     1      11.038  43.493  34.645  0.00  0.00    +0.000 C 
BRANCH   7  10
ATOM     10  O   UNL     1      11.024  42.565  32.438  0.00  0.00    +0.000 OA
BRANCH  10  11
ATOM     11  C   UNL     1      11.294  41.230  32.893  0.00  0.00    +0.000 C 
BRANCH  11  12
ATOM     12  C   UNL     1      11.302  40.243  31.720  0.00  0.00    +0.000 C 
BRANCH  12  14
ATOM     13  C   UNL     1      12.588  38.352  31.134  0.00  0.00    +0.000 C 
ATOM     14  O   UNL     1      11.809  38.974  32.147  0.00  0.00    +0.000 OA
ENDBRANCH  12  14
ENDBRANCH  11  12
ENDBRANCH  10  11
ENDBRANCH   7  10
ENDBRANCH   1   7
BRANCH   2  15
ATOM     15  S   UNL     1       9.045  44.265  30.082  0.00  0.00    +0.000 S 
ATOM     16  O   UNL     1       8.296  45.141  29.192  0.00  0.00    +0.000 OA
ATOM     17  O   UNL     1      10.258  43.642  29.587  0.00  0.00    +0.000 OA
BRANCH  15  18
ATOM     18  C   UNL     1       7.878  42.986  30.478  0.00  0.00    +0.000 A 
ATOM     19  C   UNL     1       6.667  43.286  31.105  0.00  0.00    +0.000 A 
ATOM     20  C   UNL     1       5.834  42.233  31.510  0.00  0.00    +0.000 A 
ATOM     21  C   UNL     1       6.209  40.907  31.286  0.00  0.00    +0.000 A 
ATOM     22  C   UNL     1       7.392  40.614  30.607  0.00  0.00    +0.000 A 
ATOM     23  C   UNL     1       8.224  41.654  30.193  0.00  0.00    +0.000 A 
ENDBRANCH  15  18
ENDBRANCH   2  15
BRANCH   4  24
ATOM     24  C   UNL     1      10.169  49.110  31.742  0.00  0.00    +0.000 C 
ATOM     25  C   UNL     1      10.905  49.418  30.432  0.00  0.00    +0.000 C 
ATOM     26  C   UNL     1       8.751  49.683  31.706  0.00  0.00    +0.000 C 
BRANCH  24  27
ATOM     27  O   UNL     1      10.883  49.819  32.766  0.00  0.00    +0.000 OA
ATOM     28  H   UNL     1      10.806  49.292  33.582  0.00  0.00    +0.000 HD
ENDBRANCH  24  27
ENDBRANCH   4  24
TORSDOF 9
ENDMDL
MODEL 5
REMARK VINA RESULT:      -4.2      3.483      7.210
REMARK  Name = 
REMARK  14 active torsions:
REMARK  status: ('A' for Active; 'I' for Inactive)
REMARK    1  A    between atoms: C_1  and  O_2
REMARK    2  A    between atoms: O_2  and  C_3
REMARK    3  A    between atoms: C_3  and  C_4
REMARK    4  A    between atoms: C_4  and  O_5
REMARK    5  A    between atoms: O_5  and  C_6
REMARK    6  A    between atoms: C_6  and  C_7
REMARK    7  A    between atoms: C_6  and  C_8
REMARK    8  A    between atoms: C_6  and  C_9
REMARK    9  A    between atoms: C_10  and  S_11
REMARK   10  A    between atoms: S_11  and  C_14
REMARK   11  A    between atoms: C_21  and  C_22
REMARK   12  A    between atoms: C_22  and  C_23
REMARK   13  A    between atoms: C_22  and  C_24
REMARK   14  A    between atoms: C_22  and  O_25
REMARK                            x       y       z     vdW  Elec       q    Type
REMARK                         _______ _______ _______ _____ _____    ______ ____
ROOT
ATOM      1  C   UNL     1      10.399  45.849  31.824  0.00  0.00    +0.000 A 
ATOM      2  C   UNL     1      10.451  46.520  30.579  0.00  0.00    +0.000 A 
ATOM      3  C   UNL     1      10.831  47.895  30.539  0.00  0.00    +0.000 A 
ATOM      4  C   UNL     1      11.161  48.644  31.679  0.00  0.00    +0.000 A 
ATOM      5  C   UNL     1      11.063  47.997  32.905  0.00  0.00    +0.000 A 
ATOM      6  C   UNL     1      10.715  46.648  32.966  0.00  0.00    +0.000 A 
ENDROOT
BRANCH   1   7
ATOM      7  C   UNL     1      10.086  44.381  32.188  0.00  0.00    +0.000 C 
ATOM      8  C   UNL     1       8.667  43.825  32.117  0.00  0.00    +0.000 C 
ATOM      9  C   UNL     1      10.493  44.174  33.682  0.00  0.00    +0.000 C 
BRANCH   7  10
ATOM     10  O   UNL     1      10.958  43.494  31.434  0.00  0.00    +0.000 OA
BRANCH  10  11
ATOM     11  C   UNL     1      11.109  42.172  31.972  0.00  0.00    +0.000 C 
BRANCH  11  12
ATOM     12  C   UNL     1      11.039  41.117  30.861  0.00  0.00    +0.000 C 
BRANCH  12  14
ATOM     13  C   UNL     1      11.867  38.955  30.401  0.00  0.00    +0.000 C 
ATOM     14  O   UNL     1      11.331  39.821  31.393  0.00  0.00    +0.000 OA
ENDBRANCH  12  14
ENDBRANCH  11  12
ENDBRANCH  10  11
ENDBRANCH   7  10
ENDBRANCH   1   7
BRANCH   2  15
ATOM     15  S   UNL     1      10.277  45.796  28.928  0.00  0.00    +0.000 S 
ATOM     16  O   UNL     1      10.074  46.894  27.993  0.00  0.00    +0.000 OA
ATOM     17  O   UNL     1      11.442  44.948  28.761  0.00  0.00    +0.000 OA
BRANCH  15  18
ATOM     18  C   UNL     1       8.822  44.800  28.714  0.00  0.00    +0.000 A 
ATOM     19  C   UNL     1       8.917  43.462  28.322  0.00  0.00    +0.000 A 
ATOM     20  C   UNL     1       7.740  42.753  28.046  0.00  0.00    +0.000 A 
ATOM     21  C   UNL     1       6.495  43.371  28.164  0.00  0.00    +0.000 A 
ATOM     22  C   UNL     1       6.402  44.689  28.612  0.00  0.00    +0.000 A 
ATOM     23  C   UNL     1       7.567  45.402  28.898  0.00  0.00    +0.000 A 
ENDBRANCH  15  18
ENDBRANCH   2  15
BRANCH   4  24
ATOM     24  C   UNL     1      11.590  50.108  31.607  0.00  0.00    +0.000 C 
ATOM     25  C   UNL     1      11.646  50.673  30.182  0.00  0.00    +0.000 C 
ATOM     26  C   UNL     1      10.667  50.957  32.484  0.00  0.00    +0.000 C 
BRANCH  24  27
ATOM     27  O   UNL     1      12.917  50.248  32.135  0.00  0.00    +0.000 OA
ATOM     28  H   UNL     1      13.058  49.505  32.749  0.00  0.00    +0.000 HD
ENDBRANCH  24  27
ENDBRANCH   4  24
TORSDOF 9
ENDMDL
MODEL 6
REMARK VINA RESULT:      -4.1      3.299      5.499
REMARK  Name = 
REMARK  14 active torsions:
REMARK  status: ('A' for Active; 'I' for Inactive)
REMARK    1  A    between atoms: C_1  and  O_2
REMARK    2  A    between atoms: O_2  and  C_3
REMARK    3  A    between atoms: C_3  and  C_4
REMARK    4  A    between atoms: C_4  and  O_5
REMARK    5  A    between atoms: O_5  and  C_6
REMARK    6  A    between atoms: C_6  and  C_7
REMARK    7  A    between atoms: C_6  and  C_8
REMARK    8  A    between atoms: C_6  and  C_9
REMARK    9  A    between atoms: C_10  and  S_11
REMARK   10  A    between atoms: S_11  and  C_14
REMARK   11  A    between atoms: C_21  and  C_22
REMARK   12  A    between atoms: C_22  and  C_23
REMARK   13  A    between atoms: C_22  and  C_24
REMARK   14  A    between atoms: C_22  and  O_25
REMARK                            x       y       z     vdW  Elec       q    Type
REMARK                         _______ _______ _______ _____ _____    ______ ____
ROOT
ATOM      1  C   UNL     1       6.549  40.109  29.335  0.00  0.00    +0.000 A 
ATOM      2  C   UNL     1       7.024  40.531  30.600  0.00  0.00    +0.000 A 
ATOM      3  C   UNL     1       8.420  40.450  30.887  0.00  0.00    +0.000 A 
ATOM      4  C   UNL     1       9.374  39.965  29.979  0.00  0.00    +0.000 A 
ATOM      5  C   UNL     1       8.900  39.506  28.756  0.00  0.00    +0.000 A 
ATOM      6  C   UNL     1       7.542  39.596  28.446  0.00  0.00    +0.000 A 
ENDROOT
BRANCH   1   7
ATOM      7  C   UNL     1       5.136  40.123  28.711  0.00  0.00    +0.000 C 
ATOM      8  C   UNL     1       3.912  39.663  29.496  0.00  0.00    +0.000 C 
ATOM      9  C   UNL     1       5.164  39.172  27.473  0.00  0.00    +0.000 C 
BRANCH   7  10
ATOM     10  O   UNL     1       4.856  41.442  28.167  0.00  0.00    +0.000 OA
BRANCH  10  11
ATOM     11  C   UNL     1       3.492  41.878  28.275  0.00  0.00    +0.000 C 
BRANCH  11  12
ATOM     12  C   UNL     1       3.118  42.803  27.112  0.00  0.00    +0.000 C 
BRANCH  12  14
ATOM     13  C   UNL     1       1.687  40.981  26.661  0.00  0.00    +0.000 C 
ATOM     14  O   UNL     1       1.883  42.382  26.524  0.00  0.00    +0.000 OA
ENDBRANCH  12  14
ENDBRANCH  11  12
ENDBRANCH  10  11
ENDBRANCH   7  10
ENDBRANCH   1   7
BRANCH   2  15
ATOM     15  S   UNL     1       6.093  41.378  31.902  0.00  0.00    +0.000 S 
ATOM     16  O   UNL     1       5.400  42.498  31.280  0.00  0.00    +0.000 OA
ATOM     17  O   UNL     1       5.305  40.341  32.541  0.00  0.00    +0.000 OA
BRANCH  15  18
ATOM     18  C   UNL     1       7.104  42.156  33.138  0.00  0.00    +0.000 A 
ATOM     19  C   UNL     1       7.654  43.423  32.926  0.00  0.00    +0.000 A 
ATOM     20  C   UNL     1       8.546  43.942  33.875  0.00  0.00    +0.000 A 
ATOM     21  C   UNL     1       8.875  43.207  35.014  0.00  0.00    +0.000 A 
ATOM     22  C   UNL     1       8.279  41.968  35.251  0.00  0.00    +0.000 A 
ATOM     23  C   UNL     1       7.384  41.445  34.317  0.00  0.00    +0.000 A 
ENDBRANCH  15  18
ENDBRANCH   2  15
BRANCH   4  24
ATOM     24  C   UNL     1      10.866  39.912  30.301  0.00  0.00    +0.000 C 
ATOM     25  C   UNL     1      11.176  39.664  31.783  0.00  0.00    +0.000 C 
ATOM     26  C   UNL     1      11.542  38.852  29.429  0.00  0.00    +0.000 C 
BRANCH  24  27
ATOM     27  O   UNL     1      11.473  41.171  29.980  0.00  0.00    +0.000 OA
ATOM     28  H   UNL     1      10.805  41.860  30.148  0.00  0.00    +0.000 HD
ENDBRANCH  24  27
ENDBRANCH   4  24
TORSDOF 9
ENDMDL
MODEL 7
REMARK VINA RESULT:      -4.1      3.141      5.149
REMARK  Name = 
REMARK  14 active torsions:
REMARK  status: ('A' for Active; 'I' for Inactive)
REMARK    1  A    between atoms: C_1  and  O_2
REMARK    2  A    between atoms: O_2  and  C_3
REMARK    3  A    between atoms: C_3  and  C_4
REMARK    4  A    between atoms: C_4  and  O_5
REMARK    5  A    between atoms: O_5  and  C_6
REMARK    6  A    between atoms: C_6  and  C_7
REMARK    7  A    between atoms: C_6  and  C_8
REMARK    8  A    between atoms: C_6  and  C_9
REMARK    9  A    between atoms: C_10  and  S_11
REMARK   10  A    between atoms: S_11  and  C_14
REMARK   11  A    between atoms: C_21  and  C_22
REMARK   12  A    between atoms: C_22  and  C_23
REMARK   13  A    between atoms: C_22  and  C_24
REMARK   14  A    between atoms: C_22  and  O_25
REMARK                            x       y       z     vdW  Elec       q    Type
REMARK                         _______ _______ _______ _____ _____    ______ ____
ROOT
ATOM      1  C   UNL     1       6.393  41.060  31.520  0.00  0.00    +0.000 A 
ATOM      2  C   UNL     1       7.092  41.784  32.516  0.00  0.00    +0.000 A 
ATOM      3  C   UNL     1       8.519  41.808  32.495  0.00  0.00    +0.000 A 
ATOM      4  C   UNL     1       9.293  41.143  31.531  0.00  0.00    +0.000 A 
ATOM      5  C   UNL     1       8.607  40.393  30.584  0.00  0.00    +0.000 A 
ATOM      6  C   UNL     1       7.212  40.373  30.573  0.00  0.00    +0.000 A 
ENDROOT
BRANCH   1   7
ATOM      7  C   UNL     1       4.883  40.890  31.242  0.00  0.00    +0.000 C 
ATOM      8  C   UNL     1       3.957  40.218  32.250  0.00  0.00    +0.000 C 
ATOM      9  C   UNL     1       4.742  40.008  29.961  0.00  0.00    +0.000 C 
BRANCH   7  10
ATOM     10  O   UNL     1       4.306  42.175  30.881  0.00  0.00    +0.000 OA
BRANCH  10  11
ATOM     11  C   UNL     1       4.531  42.595  29.527  0.00  0.00    +0.000 C 
BRANCH  11  12
ATOM     12  C   UNL     1       5.184  43.981  29.484  0.00  0.00    +0.000 C 
BRANCH  12  14
ATOM     13  C   UNL     1       7.206  45.134  29.877  0.00  0.00    +0.000 C 
ATOM     14  O   UNL     1       6.598  43.866  29.670  0.00  0.00    +0.000 OA
ENDBRANCH  12  14
ENDBRANCH  11  12
ENDBRANCH  10  11
ENDBRANCH   7  10
ENDBRANCH   1   7
BRANCH   2  15
ATOM     15  S   UNL     1       6.395  42.896  33.765  0.00  0.00    +0.000 S 
ATOM     16  O   UNL     1       5.694  43.958  33.057  0.00  0.00    +0.000 OA
ATOM     17  O   UNL     1       5.639  42.037  34.657  0.00  0.00    +0.000 OA
BRANCH  15  18
ATOM     18  C   UNL     1       7.607  43.772  34.723  0.00  0.00    +0.000 A 
ATOM     19  C   UNL     1       8.176  44.959  34.254  0.00  0.00    +0.000 A 
ATOM     20  C   UNL     1       9.216  45.547  34.985  0.00  0.00    +0.000 A 
ATOM     21  C   UNL     1       9.675  44.959  36.165  0.00  0.00    +0.000 A 
ATOM     22  C   UNL     1       9.065  43.806  36.661  0.00  0.00    +0.000 A 
ATOM     23  C   UNL     1       8.023  43.217  35.944  0.00  0.00    +0.000 A 
ENDBRANCH  15  18
ENDBRANCH   2  15
BRANCH   4  24
ATOM     24  C   UNL     1      10.819  41.204  31.515  0.00  0.00    +0.000 C 
ATOM     25  C   UNL     1      11.418  42.138  32.575  0.00  0.00    +0.000 C 
ATOM     26  C   UNL     1      11.391  39.793  31.659  0.00  0.00    +0.000 C 
BRANCH  24  27
ATOM     27  O   UNL     1      11.267  41.713  30.250  0.00  0.00    +0.000 OA
ATOM     28  H   UNL     1      10.596  42.350  29.947  0.00  0.00    +0.000 HD
ENDBRANCH  24  27
ENDBRANCH   4  24
TORSDOF 9
ENDMDL
MODEL 8
REMARK VINA RESULT:      -4.0      3.340      5.710
REMARK  Name = 
REMARK  14 active torsions:
REMARK  status: ('A' for Active; 'I' for Inactive)
REMARK    1  A    between atoms: C_1  and  O_2
REMARK    2  A    between atoms: O_2  and  C_3
REMARK    3  A    between atoms: C_3  and  C_4
REMARK    4  A    between atoms: C_4  and  O_5
REMARK    5  A    between atoms: O_5  and  C_6
REMARK    6  A    between atoms: C_6  and  C_7
REMARK    7  A    between atoms: C_6  and  C_8
REMARK    8  A    between atoms: C_6  and  C_9
REMARK    9  A    between atoms: C_10  and  S_11
REMARK   10  A    between atoms: S_11  and  C_14
REMARK   11  A    between atoms: C_21  and  C_22
REMARK   12  A    between atoms: C_22  and  C_23
REMARK   13  A    between atoms: C_22  and  C_24
REMARK   14  A    between atoms: C_22  and  O_25
REMARK                            x       y       z     vdW  Elec       q    Type
REMARK                         _______ _______ _______ _____ _____    ______ ____
ROOT
ATOM      1  C   UNL     1       6.227  40.345  30.619  0.00  0.00    +0.000 A 
ATOM      2  C   UNL     1       7.502  40.402  30.007  0.00  0.00    +0.000 A 
ATOM      3  C   UNL     1       8.669  40.488  30.825  0.00  0.00    +0.000 A 
ATOM      4  C   UNL     1       8.634  40.523  32.227  0.00  0.00    +0.000 A 
ATOM      5  C   UNL     1       7.380  40.517  32.825  0.00  0.00    +0.000 A 
ATOM      6  C   UNL     1       6.227  40.411  32.046  0.00  0.00    +0.000 A 
ENDROOT
BRANCH   1   7
ATOM      7  C   UNL     1       4.809  40.195  30.026  0.00  0.00    +0.000 C 
ATOM      8  C   UNL     1       4.520  39.228  28.882  0.00  0.00    +0.000 C 
ATOM      9  C   UNL     1       4.393  41.586  29.452  0.00  0.00    +0.000 C 
BRANCH   7  10
ATOM     10  O   UNL     1       3.859  39.928  31.095  0.00  0.00    +0.000 OA
BRANCH  10  11
ATOM     11  C   UNL     1       2.515  40.374  30.852  0.00  0.00    +0.000 C 
BRANCH  11  12
ATOM     12  C   UNL     1       1.872  40.899  32.140  0.00  0.00    +0.000 C 
BRANCH  12  14
ATOM     13  C   UNL     1       2.480  42.007  34.133  0.00  0.00    +0.000 C 
ATOM     14  O   UNL     1       2.703  41.902  32.733  0.00  0.00    +0.000 OA
ENDBRANCH  12  14
ENDBRANCH  11  12
ENDBRANCH  10  11
ENDBRANCH   7  10
ENDBRANCH   1   7
BRANCH   2  15
ATOM     15  S   UNL     1       7.895  40.180  28.253  0.00  0.00    +0.000 S 
ATOM     16  O   UNL     1       9.310  40.481  28.085  0.00  0.00    +0.000 OA
ATOM     17  O   UNL     1       7.424  38.848  27.924  0.00  0.00    +0.000 OA
BRANCH  15  18
ATOM     18  C   UNL     1       7.097  41.340  27.171  0.00  0.00    +0.000 A 
ATOM     19  C   UNL     1       7.263  42.717  27.343  0.00  0.00    +0.000 A 
ATOM     20  C   UNL     1       6.515  43.594  26.545  0.00  0.00    +0.000 A 
ATOM     21  C   UNL     1       5.623  43.100  25.592  0.00  0.00    +0.000 A 
ATOM     22  C   UNL     1       5.503  41.726  25.384  0.00  0.00    +0.000 A 
ATOM     23  C   UNL     1       6.248  40.844  26.167  0.00  0.00    +0.000 A 
ENDBRANCH  15  18
ENDBRANCH   2  15
BRANCH   4  24
ATOM     24  C   UNL     1       9.899  40.590  33.081  0.00  0.00    +0.000 C 
ATOM     25  C   UNL     1      11.202  40.476  32.278  0.00  0.00    +0.000 C 
ATOM     26  C   UNL     1       9.892  41.875  33.911  0.00  0.00    +0.000 C 
BRANCH  24  27
ATOM     27  O   UNL     1       9.914  39.493  34.006  0.00  0.00    +0.000 OA
ATOM     28  H   UNL     1       9.477  38.743  33.563  0.00  0.00    +0.000 HD
ENDBRANCH  24  27
ENDBRANCH   4  24
TORSDOF 9
ENDMDL
MODEL 9
REMARK VINA RESULT:      -3.2      3.229      6.164
REMARK  Name = 
REMARK  14 active torsions:
REMARK  status: ('A' for Active; 'I' for Inactive)
REMARK    1  A    between atoms: C_1  and  O_2
REMARK    2  A    between atoms: O_2  and  C_3
REMARK    3  A    between atoms: C_3  and  C_4
REMARK    4  A    between atoms: C_4  and  O_5
REMARK    5  A    between atoms: O_5  and  C_6
REMARK    6  A    between atoms: C_6  and  C_7
REMARK    7  A    between atoms: C_6  and  C_8
REMARK    8  A    between atoms: C_6  and  C_9
REMARK    9  A    between atoms: C_10  and  S_11
REMARK   10  A    between atoms: S_11  and  C_14
REMARK   11  A    between atoms: C_21  and  C_22
REMARK   12  A    between atoms: C_22  and  C_23
REMARK   13  A    between atoms: C_22  and  C_24
REMARK   14  A    between atoms: C_22  and  O_25
REMARK                            x       y       z     vdW  Elec       q    Type
REMARK                         _______ _______ _______ _____ _____    ______ ____
ROOT
ATOM      1  C   UNL     1       5.984  41.559  31.266  0.00  0.00    +0.000 A 
ATOM      2  C   UNL     1       7.241  41.703  30.634  0.00  0.00    +0.000 A 
ATOM      3  C   UNL     1       8.400  41.958  31.427  0.00  0.00    +0.000 A 
ATOM      4  C   UNL     1       8.373  42.081  32.825  0.00  0.00    +0.000 A 
ATOM      5  C   UNL     1       7.131  41.987  33.440  0.00  0.00    +0.000 A 
ATOM      6  C   UNL     1       5.988  41.717  32.686  0.00  0.00    +0.000 A 
ENDROOT
BRANCH   1   7
ATOM      7  C   UNL     1       4.583  41.229  30.705  0.00  0.00    +0.000 C 
ATOM      8  C   UNL     1       4.348  40.020  29.804  0.00  0.00    +0.000 C 
ATOM      9  C   UNL     1       4.135  42.440  29.827  0.00  0.00    +0.000 C 
BRANCH   7  10
ATOM     10  O   UNL     1       3.621  41.176  31.794  0.00  0.00    +0.000 OA
BRANCH  10  11
ATOM     11  C   UNL     1       2.342  41.767  31.517  0.00  0.00    +0.000 C 
BRANCH  11  12
ATOM     12  C   UNL     1       1.845  42.583  32.716  0.00  0.00    +0.000 C 
BRANCH  12  14
ATOM     13  C   UNL     1       2.575  44.043  34.421  0.00  0.00    +0.000 C 
ATOM     14  O   UNL     1       2.851  43.512  33.131  0.00  0.00    +0.000 OA
ENDBRANCH  12  14
ENDBRANCH  11  12
ENDBRANCH  10  11
ENDBRANCH   7  10
ENDBRANCH   1   7
BRANCH   2  15
ATOM     15  S   UNL     1       7.641  41.408  28.892  0.00  0.00    +0.000 S 
ATOM     16  O   UNL     1       6.424  41.634  28.124  0.00  0.00    +0.000 OA
ATOM     17  O   UNL     1       8.798  42.241  28.622  0.00  0.00    +0.000 OA
BRANCH  15  18
ATOM     18  C   UNL     1       8.060  39.725  28.511  0.00  0.00    +0.000 A 
ATOM     19  C   UNL     1       7.114  38.852  27.968  0.00  0.00    +0.000 A 
ATOM     20  C   UNL     1       7.454  37.503  27.801  0.00  0.00    +0.000 A 
ATOM     21  C   UNL     1       8.718  37.039  28.169  0.00  0.00    +0.000 A 
ATOM     22  C   UNL     1       9.680  37.925  28.656  0.00  0.00    +0.000 A 
ATOM     23  C   UNL     1       9.354  39.272  28.819  0.00  0.00    +0.000 A 
ENDBRANCH  15  18
ENDBRANCH   2  15
BRANCH   4  24
ATOM     24  C   UNL     1       9.632  42.329  33.654  0.00  0.00    +0.000 C 
ATOM     25  C   UNL     1      10.685  43.193  32.948  0.00  0.00    +0.000 C 
ATOM     26  C   UNL     1       9.247  42.947  35.000  0.00  0.00    +0.000 C 
BRANCH  24  27
ATOM     27  O   UNL     1      10.278  41.079  33.935  0.00  0.00    +0.000 OA
ATOM     28  H   UNL     1      10.118  40.499  33.169  0.00  0.00    +0.000 HD
ENDBRANCH  24  27
ENDBRANCH   4  24
TORSDOF 9
ENDMDL
