MODEL 1
REMARK VINA RESULT:      -7.1      0.000      0.000
REMARK  Name = 
REMARK  7 active torsions:
REMARK  status: ('A' for Active; 'I' for Inactive)
REMARK    1  A    between atoms: C_2  and  C_3
REMARK    2  A    between atoms: C_3  and  C_5
REMARK    3  A    between atoms: C_5  and  C_6
REMARK    4  A    between atoms: C_7  and  C_8
REMARK    5  A    between atoms: C_11  and  C_12
REMARK    6  A    between atoms: C_16  and  N_17
REMARK    7  A    between atoms: N_17  and  N_18
REMARK                            x       y       z     vdW  Elec       q    Type
REMARK                         _______ _______ _______ _____ _____    ______ ____
ROOT
ATOM      1  C   UNL     1      11.208  39.326  30.822  0.00  0.00    +0.000 A 
ATOM      2  C   UNL     1      11.079  39.000  29.451  0.00  0.00    +0.000 A 
ATOM      3  C   UNL     1      12.120  38.260  28.840  0.00  0.00    +0.000 A 
ATOM      4  C   UNL     1      13.193  37.713  29.550  0.00  0.00    +0.000 A 
ATOM      5  C   UNL     1      13.272  38.013  30.911  0.00  0.00    +0.000 A 
ATOM      6  C   UNL     1      12.306  38.811  31.537  0.00  0.00    +0.000 A 
ENDROOT
BRANCH   2   7
ATOM      7  C   UNL     1       9.881  39.448  28.625  0.00  0.00    +0.000 C 
ATOM      8  C   UNL     1       8.766  38.442  28.588  0.00  0.00    +0.000 C 
ATOM      9  C   UNL     1       7.561  39.023  28.649  0.00  0.00    +0.000 C 
ATOM     10  C   UNL     1       7.663  40.512  28.752  0.00  0.00    +0.000 C 
ATOM     11  C   UNL     1       9.143  40.732  29.089  0.00  0.00    +0.000 C 
BRANCH  10  12
ATOM     12  C   UNL     1       7.272  41.158  27.441  0.00  0.00    +0.000 C 
ATOM     13  O   UNL     1       7.954  41.983  26.840  0.00  0.00    +0.000 OA
ENDBRANCH  10  12
ENDBRANCH   2   7
BRANCH   4  14
ATOM     14  N   UNL     1      14.258  37.012  28.940  0.00  0.00    +0.000 N 
ATOM     15  H   UNL     1      14.285  36.025  29.210  0.00  0.00    +0.000 HD
BRANCH  14  16
ATOM     16  N   UNL     1      14.713  37.303  27.648  0.00  0.00    +0.000 NA
ATOM     17  H   UNL     1      13.952  37.291  26.968  0.00  0.00    +0.000 HD
ATOM     18  H   UNL     1      15.418  36.636  27.331  0.00  0.00    +0.000 HD
ENDBRANCH  14  16
ENDBRANCH   4  14
BRANCH   1  19
ATOM     19  C   UNL     1      10.257  40.260  31.557  0.00  0.00    +0.000 C 
BRANCH  19  20
ATOM     20  C   UNL     1      10.425  40.346  33.060  0.00  0.00    +0.000 C 
ATOM     21  O   UNL     1      10.131  39.471  33.863  0.00  0.00    +0.000 OA
BRANCH  20  23
ATOM     22  N   UNL     1      11.492  42.576  33.929  0.00  0.00    +0.000 NA
ATOM     23  C   UNL     1      11.026  41.596  33.516  0.00  0.00    +0.000 C 
ENDBRANCH  20  23
ENDBRANCH  19  20
ENDBRANCH   1  19
TORSDOF 7
ENDMDL
MODEL 2
REMARK VINA RESULT:      -6.7      1.756      2.043
REMARK  Name = 
REMARK  7 active torsions:
REMARK  status: ('A' for Active; 'I' for Inactive)
REMARK    1  A    between atoms: C_2  and  C_3
REMARK    2  A    between atoms: C_3  and  C_5
REMARK    3  A    between atoms: C_5  and  C_6
REMARK    4  A    between atoms: C_7  and  C_8
REMARK    5  A    between atoms: C_11  and  C_12
REMARK    6  A    between atoms: C_16  and  N_17
REMARK    7  A    between atoms: N_17  and  N_18
REMARK                            x       y       z     vdW  Elec       q    Type
REMARK                         _______ _______ _______ _____ _____    ______ ____
ROOT
ATOM      1  C   UNL     1      10.843  39.604  31.201  0.00  0.00    +0.000 A 
ATOM      2  C   UNL     1      10.245  39.382  29.939  0.00  0.00    +0.000 A 
ATOM      3  C   UNL     1      10.991  38.683  28.959  0.00  0.00    +0.000 A 
ATOM      4  C   UNL     1      12.223  38.076  29.221  0.00  0.00    +0.000 A 
ATOM      5  C   UNL     1      12.771  38.272  30.490  0.00  0.00    +0.000 A 
ATOM      6  C   UNL     1      12.102  39.029  31.461  0.00  0.00    +0.000 A 
ENDROOT
BRANCH   2   7
ATOM      7  C   UNL     1       8.852  39.899  29.605  0.00  0.00    +0.000 C 
ATOM      8  C   UNL     1       8.859  41.155  28.780  0.00  0.00    +0.000 C 
ATOM      9  C   UNL     1       7.894  41.154  27.852  0.00  0.00    +0.000 C 
ATOM     10  C   UNL     1       7.088  39.893  27.885  0.00  0.00    +0.000 C 
ATOM     11  C   UNL     1       7.935  38.968  28.768  0.00  0.00    +0.000 C 
BRANCH  10  12
ATOM     12  C   UNL     1       5.722  40.158  28.479  0.00  0.00    +0.000 C 
ATOM     13  O   UNL     1       5.050  39.325  29.080  0.00  0.00    +0.000 OA
ENDBRANCH  10  12
ENDBRANCH   2   7
BRANCH   4  14
ATOM     14  N   UNL     1      12.993  37.415  28.237  0.00  0.00    +0.000 N 
ATOM     15  H   UNL     1      12.610  37.531  27.295  0.00  0.00    +0.000 HD
BRANCH  14  16
ATOM     16  N   UNL     1      14.387  37.301  28.319  0.00  0.00    +0.000 NA
ATOM     17  H   UNL     1      14.821  37.305  27.394  0.00  0.00    +0.000 HD
ATOM     18  H   UNL     1      14.674  36.440  28.789  0.00  0.00    +0.000 HD
ENDBRANCH  14  16
ENDBRANCH   4  14
BRANCH   1  19
ATOM     19  C   UNL     1      10.231  40.487  32.279  0.00  0.00    +0.000 C 
BRANCH  19  20
ATOM     20  C   UNL     1      10.947  41.789  32.570  0.00  0.00    +0.000 C 
ATOM     21  O   UNL     1      11.481  42.091  33.628  0.00  0.00    +0.000 OA
BRANCH  20  23
ATOM     22  N   UNL     1      11.080  43.425  30.527  0.00  0.00    +0.000 NA
ATOM     23  C   UNL     1      10.991  42.704  31.432  0.00  0.00    +0.000 C 
ENDBRANCH  20  23
ENDBRANCH  19  20
ENDBRANCH   1  19
TORSDOF 7
ENDMDL
MODEL 3
REMARK VINA RESULT:      -6.4      2.702      5.098
REMARK  Name = 
REMARK  7 active torsions:
REMARK  status: ('A' for Active; 'I' for Inactive)
REMARK    1  A    between atoms: C_2  and  C_3
REMARK    2  A    between atoms: C_3  and  C_5
REMARK    3  A    between atoms: C_5  and  C_6
REMARK    4  A    between atoms: C_7  and  C_8
REMARK    5  A    between atoms: C_11  and  C_12
REMARK    6  A    between atoms: C_16  and  N_17
REMARK    7  A    between atoms: N_17  and  N_18
REMARK                            x       y       z     vdW  Elec       q    Type
REMARK                         _______ _______ _______ _____ _____    ______ ____
ROOT
ATOM      1  C   UNL     1       9.893  39.853  29.926  0.00  0.00    +0.000 A 
ATOM      2  C   UNL     1      10.737  40.244  30.992  0.00  0.00    +0.000 A 
ATOM      3  C   UNL     1      11.913  39.490  31.223  0.00  0.00    +0.000 A 
ATOM      4  C   UNL     1      12.355  38.475  30.370  0.00  0.00    +0.000 A 
ATOM      5  C   UNL     1      11.525  38.139  29.299  0.00  0.00    +0.000 A 
ATOM      6  C   UNL     1      10.312  38.806  29.084  0.00  0.00    +0.000 A 
ENDROOT
BRANCH   2   7
ATOM      7  C   UNL     1      10.398  41.418  31.900  0.00  0.00    +0.000 C 
ATOM      8  C   UNL     1      10.965  41.291  33.285  0.00  0.00    +0.000 C 
ATOM      9  C   UNL     1      11.411  42.462  33.757  0.00  0.00    +0.000 C 
ATOM     10  C   UNL     1      11.232  43.569  32.765  0.00  0.00    +0.000 C 
ATOM     11  C   UNL     1      10.913  42.817  31.467  0.00  0.00    +0.000 C 
BRANCH  10  12
ATOM     12  C   UNL     1      10.103  44.481  33.192  0.00  0.00    +0.000 C 
ATOM     13  O   UNL     1      10.092  45.697  33.033  0.00  0.00    +0.000 OA
ENDBRANCH  10  12
ENDBRANCH   2   7
BRANCH   4  14
ATOM     14  N   UNL     1      13.503  37.689  30.619  0.00  0.00    +0.000 N 
ATOM     15  H   UNL     1      13.280  36.805  31.085  0.00  0.00    +0.000 HD
BRANCH  14  16
ATOM     16  N   UNL     1      14.604  37.661  29.753  0.00  0.00    +0.000 NA
ATOM     17  H   UNL     1      14.406  37.123  28.908  0.00  0.00    +0.000 HD
ATOM     18  H   UNL     1      15.427  37.248  30.194  0.00  0.00    +0.000 HD
ENDBRANCH  14  16
ENDBRANCH   4  14
BRANCH   1  19
ATOM     19  C   UNL     1       8.519  40.459  29.675  0.00  0.00    +0.000 C 
BRANCH  19  20
ATOM     20  C   UNL     1       8.138  40.687  28.227  0.00  0.00    +0.000 C 
ATOM     21  O   UNL     1       8.620  41.533  27.486  0.00  0.00    +0.000 OA
BRANCH  20  23
ATOM     22  N   UNL     1       6.306  39.013  27.386  0.00  0.00    +0.000 NA
ATOM     23  C   UNL     1       7.126  39.760  27.731  0.00  0.00    +0.000 C 
ENDBRANCH  20  23
ENDBRANCH  19  20
ENDBRANCH   1  19
TORSDOF 7
ENDMDL
MODEL 4
REMARK VINA RESULT:      -5.9      3.203      5.130
REMARK  Name = 
REMARK  7 active torsions:
REMARK  status: ('A' for Active; 'I' for Inactive)
REMARK    1  A    between atoms: C_2  and  C_3
REMARK    2  A    between atoms: C_3  and  C_5
REMARK    3  A    between atoms: C_5  and  C_6
REMARK    4  A    between atoms: C_7  and  C_8
REMARK    5  A    between atoms: C_11  and  C_12
REMARK    6  A    between atoms: C_16  and  N_17
REMARK    7  A    between atoms: N_17  and  N_18
REMARK                            x       y       z     vdW  Elec       q    Type
REMARK                         _______ _______ _______ _____ _____    ______ ____
ROOT
ATOM      1  C   UNL     1       9.972  40.958  30.437  0.00  0.00    +0.000 A 
ATOM      2  C   UNL     1       8.842  40.724  29.619  0.00  0.00    +0.000 A 
ATOM      3  C   UNL     1       8.196  41.842  29.037  0.00  0.00    +0.000 A 
ATOM      4  C   UNL     1       8.700  43.144  29.109  0.00  0.00    +0.000 A 
ATOM      5  C   UNL     1       9.843  43.340  29.886  0.00  0.00    +0.000 A 
ATOM      6  C   UNL     1      10.465  42.273  30.546  0.00  0.00    +0.000 A 
ENDROOT
BRANCH   2   7
ATOM      7  C   UNL     1       8.294  39.324  29.382  0.00  0.00    +0.000 C 
ATOM      8  C   UNL     1       6.882  39.308  28.871  0.00  0.00    +0.000 C 
ATOM      9  C   UNL     1       6.691  38.360  27.945  0.00  0.00    +0.000 C 
ATOM     10  C   UNL     1       7.943  37.590  27.668  0.00  0.00    +0.000 C 
ATOM     11  C   UNL     1       9.027  38.447  28.331  0.00  0.00    +0.000 C 
BRANCH  10  12
ATOM     12  C   UNL     1       7.855  36.207  28.275  0.00  0.00    +0.000 C 
ATOM     13  O   UNL     1       6.884  35.463  28.177  0.00  0.00    +0.000 OA
ENDBRANCH  10  12
ENDBRANCH   2   7
BRANCH   4  14
ATOM     14  N   UNL     1       8.037  44.270  28.569  0.00  0.00    +0.000 N 
ATOM     15  H   UNL     1       7.042  44.097  28.403  0.00  0.00    +0.000 HD
BRANCH  14  16
ATOM     16  N   UNL     1       8.380  45.584  28.909  0.00  0.00    +0.000 NA
ATOM     17  H   UNL     1       9.388  45.694  29.027  0.00  0.00    +0.000 HD
ATOM     18  H   UNL     1       7.935  45.883  29.780  0.00  0.00    +0.000 HD
ENDBRANCH  14  16
ENDBRANCH   4  14
BRANCH   1  19
ATOM     19  C   UNL     1      10.653  39.875  31.262  0.00  0.00    +0.000 C 
BRANCH  19  20
ATOM     20  C   UNL     1      11.813  39.157  30.605  0.00  0.00    +0.000 C 
ATOM     21  O   UNL     1      12.146  39.260  29.433  0.00  0.00    +0.000 OA
BRANCH  20  23
ATOM     22  N   UNL     1      13.227  37.661  32.227  0.00  0.00    +0.000 NA
ATOM     23  C   UNL     1      12.576  38.311  31.519  0.00  0.00    +0.000 C 
ENDBRANCH  20  23
ENDBRANCH  19  20
ENDBRANCH   1  19
TORSDOF 7
ENDMDL
MODEL 5
REMARK VINA RESULT:      -5.5      3.865      7.449
REMARK  Name = 
REMARK  7 active torsions:
REMARK  status: ('A' for Active; 'I' for Inactive)
REMARK    1  A    between atoms: C_2  and  C_3
REMARK    2  A    between atoms: C_3  and  C_5
REMARK    3  A    between atoms: C_5  and  C_6
REMARK    4  A    between atoms: C_7  and  C_8
REMARK    5  A    between atoms: C_11  and  C_12
REMARK    6  A    between atoms: C_16  and  N_17
REMARK    7  A    between atoms: N_17  and  N_18
REMARK                            x       y       z     vdW  Elec       q    Type
REMARK                         _______ _______ _______ _____ _____    ______ ____
ROOT
ATOM      1  C   UNL     1      10.969  42.978  31.791  0.00  0.00    +0.000 A 
ATOM      2  C   UNL     1      10.813  44.056  32.693  0.00  0.00    +0.000 A 
ATOM      3  C   UNL     1      11.001  45.371  32.201  0.00  0.00    +0.000 A 
ATOM      4  C   UNL     1      11.189  45.665  30.847  0.00  0.00    +0.000 A 
ATOM      5  C   UNL     1      11.295  44.584  29.972  0.00  0.00    +0.000 A 
ATOM      6  C   UNL     1      11.197  43.264  30.432  0.00  0.00    +0.000 A 
ENDROOT
BRANCH   2   7
ATOM      7  C   UNL     1      10.484  43.838  34.163  0.00  0.00    +0.000 C 
ATOM      8  C   UNL     1      11.171  44.805  35.085  0.00  0.00    +0.000 C 
ATOM      9  C   UNL     1      10.377  45.196  36.089  0.00  0.00    +0.000 C 
ATOM     10  C   UNL     1       9.020  44.569  36.004  0.00  0.00    +0.000 C 
ATOM     11  C   UNL     1       8.998  43.990  34.585  0.00  0.00    +0.000 C 
BRANCH  10  12
ATOM     12  C   UNL     1       8.868  43.499  37.063  0.00  0.00    +0.000 C 
ATOM     13  O   UNL     1       7.881  42.780  37.190  0.00  0.00    +0.000 OA
ENDBRANCH  10  12
ENDBRANCH   2   7
BRANCH   4  14
ATOM     14  N   UNL     1      11.423  46.970  30.356  0.00  0.00    +0.000 N 
ATOM     15  H   UNL     1      12.386  47.101  30.032  0.00  0.00    +0.000 HD
BRANCH  14  16
ATOM     16  N   UNL     1      10.446  47.709  29.677  0.00  0.00    +0.000 NA
ATOM     17  H   UNL     1      10.756  47.977  28.742  0.00  0.00    +0.000 HD
ATOM     18  H   UNL     1      10.198  48.565  30.176  0.00  0.00    +0.000 HD
ENDBRANCH  14  16
ENDBRANCH   4  14
BRANCH   1  19
ATOM     19  C   UNL     1      10.970  41.517  32.219  0.00  0.00    +0.000 C 
BRANCH  19  20
ATOM     20  C   UNL     1      10.331  40.534  31.260  0.00  0.00    +0.000 C 
ATOM     21  O   UNL     1       9.131  40.401  31.067  0.00  0.00    +0.000 OA
BRANCH  20  23
ATOM     22  N   UNL     1      12.031  39.050  29.927  0.00  0.00    +0.000 NA
ATOM     23  C   UNL     1      11.294  39.732  30.511  0.00  0.00    +0.000 C 
ENDBRANCH  20  23
ENDBRANCH  19  20
ENDBRANCH   1  19
TORSDOF 7
ENDMDL
MODEL 6
REMARK VINA RESULT:      -5.4      3.193      6.684
REMARK  Name = 
REMARK  7 active torsions:
REMARK  status: ('A' for Active; 'I' for Inactive)
REMARK    1  A    between atoms: C_2  and  C_3
REMARK    2  A    between atoms: C_3  and  C_5
REMARK    3  A    between atoms: C_5  and  C_6
REMARK    4  A    between atoms: C_7  and  C_8
REMARK    5  A    between atoms: C_11  and  C_12
REMARK    6  A    between atoms: C_16  and  N_17
REMARK    7  A    between atoms: N_17  and  N_18
REMARK                            x       y       z     vdW  Elec       q    Type
REMARK                         _______ _______ _______ _____ _____    ______ ____
ROOT
ATOM      1  C   UNL     1      10.039  42.597  31.884  0.00  0.00    +0.000 A 
ATOM      2  C   UNL     1       9.785  42.264  33.235  0.00  0.00    +0.000 A 
ATOM      3  C   UNL     1      10.491  42.969  34.241  0.00  0.00    +0.000 A 
ATOM      4  C   UNL     1      11.313  44.069  33.975  0.00  0.00    +0.000 A 
ATOM      5  C   UNL     1      11.511  44.404  32.635  0.00  0.00    +0.000 A 
ATOM      6  C   UNL     1      10.895  43.679  31.606  0.00  0.00    +0.000 A 
ENDROOT
BRANCH   2   7
ATOM      7  C   UNL     1       8.810  41.162  33.626  0.00  0.00    +0.000 C 
ATOM      8  C   UNL     1       9.459  39.819  33.802  0.00  0.00    +0.000 C 
ATOM      9  C   UNL     1       8.943  39.142  34.835  0.00  0.00    +0.000 C 
ATOM     10  C   UNL     1       7.873  39.920  35.535  0.00  0.00    +0.000 C 
ATOM     11  C   UNL     1       8.051  41.333  34.968  0.00  0.00    +0.000 C 
BRANCH  10  12
ATOM     12  C   UNL     1       6.511  39.343  35.219  0.00  0.00    +0.000 C 
ATOM     13  O   UNL     1       6.313  38.402  34.455  0.00  0.00    +0.000 OA
ENDBRANCH  10  12
ENDBRANCH   2   7
BRANCH   4  14
ATOM     14  N   UNL     1      12.055  44.748  34.968  0.00  0.00    +0.000 N 
ATOM     15  H   UNL     1      12.997  44.997  34.652  0.00  0.00    +0.000 HD
BRANCH  14  16
ATOM     16  N   UNL     1      11.466  45.629  35.883  0.00  0.00    +0.000 NA
ATOM     17  H   UNL     1      11.449  45.239  36.826  0.00  0.00    +0.000 HD
ATOM     18  H   UNL     1      10.503  45.857  35.629  0.00  0.00    +0.000 HD
ENDBRANCH  14  16
ENDBRANCH   4  14
BRANCH   1  19
ATOM     19  C   UNL     1       9.487  41.807  30.706  0.00  0.00    +0.000 C 
BRANCH  19  20
ATOM     20  C   UNL     1      10.342  40.663  30.202  0.00  0.00    +0.000 C 
ATOM     21  O   UNL     1      11.533  40.506  30.432  0.00  0.00    +0.000 OA
BRANCH  20  23
ATOM     22  N   UNL     1       9.059  38.910  28.737  0.00  0.00    +0.000 NA
ATOM     23  C   UNL     1       9.607  39.683  29.407  0.00  0.00    +0.000 C 
ENDBRANCH  20  23
ENDBRANCH  19  20
ENDBRANCH   1  19
TORSDOF 7
ENDMDL
MODEL 7
REMARK VINA RESULT:      -4.9      3.484      6.532
REMARK  Name = 
REMARK  7 active torsions:
REMARK  status: ('A' for Active; 'I' for Inactive)
REMARK    1  A    between atoms: C_2  and  C_3
REMARK    2  A    between atoms: C_3  and  C_5
REMARK    3  A    between atoms: C_5  and  C_6
REMARK    4  A    between atoms: C_7  and  C_8
REMARK    5  A    between atoms: C_11  and  C_12
REMARK    6  A    between atoms: C_16  and  N_17
REMARK    7  A    between atoms: N_17  and  N_18
REMARK                            x       y       z     vdW  Elec       q    Type
REMARK                         _______ _______ _______ _____ _____    ______ ____
ROOT
ATOM      1  C   UNL     1      10.091  42.645  31.295  0.00  0.00    +0.000 A 
ATOM      2  C   UNL     1       9.468  42.950  32.528  0.00  0.00    +0.000 A 
ATOM      3  C   UNL     1       9.907  44.098  33.232  0.00  0.00    +0.000 A 
ATOM      4  C   UNL     1      10.817  45.020  32.706  0.00  0.00    +0.000 A 
ATOM      5  C   UNL     1      11.383  44.717  31.467  0.00  0.00    +0.000 A 
ATOM      6  C   UNL     1      11.037  43.548  30.776  0.00  0.00    +0.000 A 
ENDROOT
BRANCH   2   7
ATOM      7  C   UNL     1       8.376  42.069  33.120  0.00  0.00    +0.000 C 
ATOM      8  C   UNL     1       8.514  41.854  34.601  0.00  0.00    +0.000 C 
ATOM      9  C   UNL     1       7.329  41.866  35.224  0.00  0.00    +0.000 C 
ATOM     10  C   UNL     1       6.199  42.104  34.272  0.00  0.00    +0.000 C 
ATOM     11  C   UNL     1       6.915  42.579  33.002  0.00  0.00    +0.000 C 
BRANCH  10  12
ATOM     12  C   UNL     1       5.422  40.826  34.047  0.00  0.00    +0.000 C 
ATOM     13  O   UNL     1       5.791  39.713  34.411  0.00  0.00    +0.000 OA
ENDBRANCH  10  12
ENDBRANCH   2   7
BRANCH   4  14
ATOM     14  N   UNL     1      11.294  46.142  33.421  0.00  0.00    +0.000 N 
ATOM     15  H   UNL     1      12.206  46.464  33.085  0.00  0.00    +0.000 HD
BRANCH  14  16
ATOM     16  N   UNL     1      10.444  47.136  33.923  0.00  0.00    +0.000 NA
ATOM     17  H   UNL     1      10.169  46.946  34.888  0.00  0.00    +0.000 HD
ATOM     18  H   UNL     1       9.589  47.222  33.371  0.00  0.00    +0.000 HD
ENDBRANCH  14  16
ENDBRANCH   4  14
BRANCH   1  19
ATOM     19  C   UNL     1       9.843  41.356  30.524  0.00  0.00    +0.000 C 
BRANCH  19  20
ATOM     20  C   UNL     1      10.909  40.286  30.640  0.00  0.00    +0.000 C 
ATOM     21  O   UNL     1      11.584  39.848  29.719  0.00  0.00    +0.000 OA
BRANCH  20  23
ATOM     22  N   UNL     1      11.235  39.398  33.084  0.00  0.00    +0.000 NA
ATOM     23  C   UNL     1      11.116  39.805  32.003  0.00  0.00    +0.000 C 
ENDBRANCH  20  23
ENDBRANCH  19  20
ENDBRANCH   1  19
TORSDOF 7
ENDMDL
MODEL 8
REMARK VINA RESULT:      -4.8      3.765      5.774
REMARK  Name = 
REMARK  7 active torsions:
REMARK  status: ('A' for Active; 'I' for Inactive)
REMARK    1  A    between atoms: C_2  and  C_3
REMARK    2  A    between atoms: C_3  and  C_5
REMARK    3  A    between atoms: C_5  and  C_6
REMARK    4  A    between atoms: C_7  and  C_8
REMARK    5  A    between atoms: C_11  and  C_12
REMARK    6  A    between atoms: C_16  and  N_17
REMARK    7  A    between atoms: N_17  and  N_18
REMARK                            x       y       z     vdW  Elec       q    Type
REMARK                         _______ _______ _______ _____ _____    ______ ____
ROOT
ATOM      1  C   UNL     1       9.986  42.456  32.989  0.00  0.00    +0.000 A 
ATOM      2  C   UNL     1       9.454  41.147  32.920  0.00  0.00    +0.000 A 
ATOM      3  C   UNL     1       9.686  40.393  31.743  0.00  0.00    +0.000 A 
ATOM      4  C   UNL     1      10.531  40.818  30.713  0.00  0.00    +0.000 A 
ATOM      5  C   UNL     1      11.079  42.097  30.828  0.00  0.00    +0.000 A 
ATOM      6  C   UNL     1      10.807  42.907  31.939  0.00  0.00    +0.000 A 
ENDROOT
BRANCH   2   7
ATOM      7  C   UNL     1       8.625  40.552  34.049  0.00  0.00    +0.000 C 
ATOM      8  C   UNL     1       7.183  40.334  33.687  0.00  0.00    +0.000 C 
ATOM      9  C   UNL     1       6.702  39.193  34.195  0.00  0.00    +0.000 C 
ATOM     10  C   UNL     1       7.741  38.445  34.971  0.00  0.00    +0.000 C 
ATOM     11  C   UNL     1       9.042  39.150  34.569  0.00  0.00    +0.000 C 
BRANCH  10  12
ATOM     12  C   UNL     1       7.467  38.551  36.455  0.00  0.00    +0.000 C 
ATOM     13  O   UNL     1       7.046  37.633  37.153  0.00  0.00    +0.000 OA
ENDBRANCH  10  12
ENDBRANCH   2   7
BRANCH   4  14
ATOM     14  N   UNL     1      10.731  40.093  29.516  0.00  0.00    +0.000 N 
ATOM     15  H   UNL     1      11.709  39.823  29.379  0.00  0.00    +0.000 HD
BRANCH  14  16
ATOM     16  N   UNL     1       9.776  39.207  29.000  0.00  0.00    +0.000 NA
ATOM     17  H   UNL     1       9.988  38.239  29.245  0.00  0.00    +0.000 HD
ATOM     18  H   UNL     1       9.716  39.260  27.982  0.00  0.00    +0.000 HD
ENDBRANCH  14  16
ENDBRANCH   4  14
BRANCH   1  19
ATOM     19  C   UNL     1       9.668  43.434  34.111  0.00  0.00    +0.000 C 
BRANCH  19  20
ATOM     20  C   UNL     1       8.437  44.295  33.925  0.00  0.00    +0.000 C 
ATOM     21  O   UNL     1       7.530  44.084  33.132  0.00  0.00    +0.000 OA
BRANCH  20  23
ATOM     22  N   UNL     1       8.327  46.386  35.502  0.00  0.00    +0.000 NA
ATOM     23  C   UNL     1       8.378  45.442  34.827  0.00  0.00    +0.000 C 
ENDBRANCH  20  23
ENDBRANCH  19  20
ENDBRANCH   1  19
TORSDOF 7
ENDMDL
MODEL 9
REMARK VINA RESULT:      -4.6      4.170      6.556
REMARK  Name = 
REMARK  7 active torsions:
REMARK  status: ('A' for Active; 'I' for Inactive)
REMARK    1  A    between atoms: C_2  and  C_3
REMARK    2  A    between atoms: C_3  and  C_5
REMARK    3  A    between atoms: C_5  and  C_6
REMARK    4  A    between atoms: C_7  and  C_8
REMARK    5  A    between atoms: C_11  and  C_12
REMARK    6  A    between atoms: C_16  and  N_17
REMARK    7  A    between atoms: N_17  and  N_18
REMARK                            x       y       z     vdW  Elec       q    Type
REMARK                         _______ _______ _______ _____ _____    ______ ____
ROOT
ATOM      1  C   UNL     1       9.867  43.718  29.965  0.00  0.00    +0.000 A 
ATOM      2  C   UNL     1       9.625  42.340  30.175  0.00  0.00    +0.000 A 
ATOM      3  C   UNL     1       8.282  41.888  30.163  0.00  0.00    +0.000 A 
ATOM      4  C   UNL     1       7.201  42.702  29.811  0.00  0.00    +0.000 A 
ATOM      5  C   UNL     1       7.474  44.049  29.565  0.00  0.00    +0.000 A 
ATOM      6  C   UNL     1       8.779  44.553  29.648  0.00  0.00    +0.000 A 
ENDROOT
BRANCH   2   7
ATOM      7  C   UNL     1      10.753  41.354  30.442  0.00  0.00    +0.000 C 
ATOM      8  C   UNL     1      11.065  41.176  31.901  0.00  0.00    +0.000 C 
ATOM      9  C   UNL     1      11.344  39.903  32.206  0.00  0.00    +0.000 C 
ATOM     10  C   UNL     1      11.253  39.009  31.009  0.00  0.00    +0.000 C 
ATOM     11  C   UNL     1      10.536  39.889  29.978  0.00  0.00    +0.000 C 
BRANCH  10  12
ATOM     12  C   UNL     1      12.636  38.601  30.551  0.00  0.00    +0.000 C 
ATOM     13  O   UNL     1      13.423  37.936  31.218  0.00  0.00    +0.000 OA
ENDBRANCH  10  12
ENDBRANCH   2   7
BRANCH   4  14
ATOM     14  N   UNL     1       5.856  42.271  29.840  0.00  0.00    +0.000 N 
ATOM     15  H   UNL     1       5.194  43.036  29.684  0.00  0.00    +0.000 HD
BRANCH  14  16
ATOM     16  N   UNL     1       5.454  41.013  29.372  0.00  0.00    +0.000 NA
ATOM     17  H   UNL     1       4.512  40.776  29.686  0.00  0.00    +0.000 HD
ATOM     18  H   UNL     1       6.079  40.269  29.690  0.00  0.00    +0.000 HD
ENDBRANCH  14  16
ENDBRANCH   4  14
BRANCH   1  19
ATOM     19  C   UNL     1      11.235  44.365  30.127  0.00  0.00    +0.000 C 
BRANCH  19  20
ATOM     20  C   UNL     1      11.523  45.561  29.243  0.00  0.00    +0.000 C 
ATOM     21  O   UNL     1      11.932  45.516  28.091  0.00  0.00    +0.000 OA
BRANCH  20  23
ATOM     22  N   UNL     1      10.954  47.863  30.358  0.00  0.00    +0.000 NA
ATOM     23  C   UNL     1      11.233  46.845  29.875  0.00  0.00    +0.000 C 
ENDBRANCH  20  23
ENDBRANCH  19  20
ENDBRANCH   1  19
TORSDOF 7
ENDMDL
MODEL 10
REMARK VINA RESULT:      -4.4      3.689      4.868
REMARK  Name = 
REMARK  7 active torsions:
REMARK  status: ('A' for Active; 'I' for Inactive)
REMARK    1  A    between atoms: C_2  and  C_3
REMARK    2  A    between atoms: C_3  and  C_5
REMARK    3  A    between atoms: C_5  and  C_6
REMARK    4  A    between atoms: C_7  and  C_8
REMARK    5  A    between atoms: C_11  and  C_12
REMARK    6  A    between atoms: C_16  and  N_17
REMARK    7  A    between atoms: N_17  and  N_18
REMARK                            x       y       z     vdW  Elec       q    Type
REMARK                         _______ _______ _______ _____ _____    ______ ____
ROOT
ATOM      1  C   UNL     1       9.597  42.373  32.299  0.00  0.00    +0.000 A 
ATOM      2  C   UNL     1       9.888  41.974  30.973  0.00  0.00    +0.000 A 
ATOM      3  C   UNL     1      10.648  42.852  30.163  0.00  0.00    +0.000 A 
ATOM      4  C   UNL     1      11.246  44.020  30.647  0.00  0.00    +0.000 A 
ATOM      5  C   UNL     1      10.980  44.367  31.972  0.00  0.00    +0.000 A 
ATOM      6  C   UNL     1      10.164  43.567  32.783  0.00  0.00    +0.000 A 
ENDROOT
BRANCH   2   7
ATOM      7  C   UNL     1       9.382  40.658  30.398  0.00  0.00    +0.000 C 
ATOM      8  C   UNL     1       8.318  40.829  29.351  0.00  0.00    +0.000 C 
ATOM      9  C   UNL     1       8.458  39.960  28.343  0.00  0.00    +0.000 C 
ATOM     10  C   UNL     1       9.648  39.071  28.533  0.00  0.00    +0.000 C 
ATOM     11  C   UNL     1      10.417  39.765  29.663  0.00  0.00    +0.000 C 
BRANCH  10  12
ATOM     12  C   UNL     1       9.205  37.675  28.913  0.00  0.00    +0.000 C 
ATOM     13  O   UNL     1       8.871  36.808  28.112  0.00  0.00    +0.000 OA
ENDBRANCH  10  12
ENDBRANCH   2   7
BRANCH   4  14
ATOM     14  N   UNL     1      11.967  44.923  29.834  0.00  0.00    +0.000 N 
ATOM     15  H   UNL     1      12.876  45.173  30.234  0.00  0.00    +0.000 HD
BRANCH  14  16
ATOM     16  N   UNL     1      11.903  44.899  28.435  0.00  0.00    +0.000 NA
ATOM     17  H   UNL     1      11.914  45.840  28.039  0.00  0.00    +0.000 HD
ATOM     18  H   UNL     1      11.057  44.435  28.098  0.00  0.00    +0.000 HD
ENDBRANCH  14  16
ENDBRANCH   4  14
BRANCH   1  19
ATOM     19  C   UNL     1       8.650  41.614  33.217  0.00  0.00    +0.000 C 
BRANCH  19  20
ATOM     20  C   UNL     1       7.260  42.194  33.379  0.00  0.00    +0.000 C 
ATOM     21  O   UNL     1       6.620  42.770  32.510  0.00  0.00    +0.000 OA
BRANCH  20  23
ATOM     22  N   UNL     1       6.219  41.762  35.745  0.00  0.00    +0.000 NA
ATOM     23  C   UNL     1       6.683  41.981  34.703  0.00  0.00    +0.000 C 
ENDBRANCH  20  23
ENDBRANCH  19  20
ENDBRANCH   1  19
TORSDOF 7
ENDMDL
