MODEL 1
REMARK VINA RESULT:      -6.4      0.000      0.000
REMARK  Name = 
REMARK  7 active torsions:
REMARK  status: ('A' for Active; 'I' for Inactive)
REMARK    1  A    between atoms: C_1  and  C_2
REMARK    2  A    between atoms: C_2  and  C_3
REMARK    3  A    between atoms: C_2  and  C_4
REMARK    4  A    between atoms: C_4  and  C_5
REMARK    5  A    between atoms: C_4  and  N_15
REMARK    6  A    between atoms: C_9  and  C_10
REMARK    7  A    between atoms: C_10  and  O_11
REMARK                            x       y       z     vdW  Elec       q    Type
REMARK                         _______ _______ _______ _____ _____    ______ ____
ROOT
ATOM      1  C   UNL     1      10.469  39.797  30.434  0.00  0.00    +0.000 A 
ATOM      2  C   UNL     1      11.209  39.479  31.595  0.00  0.00    +0.000 A 
ATOM      3 CL   UNL     1      10.764  40.026  33.174  0.00  0.00    +0.000 Cl
ATOM      4  C   UNL     1      12.362  38.681  31.525  0.00  0.00    +0.000 A 
ATOM      5  C   UNL     1      12.792  38.132  30.310  0.00  0.00    +0.000 A 
ATOM      6  C   UNL     1      12.028  38.387  29.168  0.00  0.00    +0.000 A 
ATOM      7  C   UNL     1      10.909  39.221  29.225  0.00  0.00    +0.000 A 
ENDROOT
BRANCH   5   8
ATOM      8  C   UNL     1      14.034  37.295  30.223  0.00  0.00    +0.000 C 
ATOM      9  F   UNL     1      15.140  37.901  30.730  0.00  0.00    +0.000 F 
BRANCH   8  10
ATOM     10  O   UNL     1      14.332  37.063  28.862  0.00  0.00    +0.000 OA
ATOM     11  H   UNL     1      14.612  36.133  28.858  0.00  0.00    +0.000 HD
ENDBRANCH   8  10
ENDBRANCH   5   8
BRANCH   1  12
ATOM     12  C   UNL     1       9.228  40.705  30.447  0.00  0.00    +0.000 C 
BRANCH  12  13
ATOM     13  N   UNL     1       9.518  42.149  30.335  0.00  0.00    +0.000 NA
ATOM     14  C   UNL     1      10.887  42.636  30.520  0.00  0.00    +0.000 C 
ATOM     15  C   UNL     1      11.198  43.235  31.904  0.00  0.00    +0.000 C 
ATOM     16  O   UNL     1      10.201  44.167  32.337  0.00  0.00    +0.000 OA
ATOM     17  C   UNL     1       8.906  43.554  32.330  0.00  0.00    +0.000 C 
ATOM     18  C   UNL     1       8.546  43.084  30.914  0.00  0.00    +0.000 C 
ENDBRANCH  12  13
BRANCH  12  20
ATOM     19  C   UNL     1       6.723  40.269  30.013  0.00  0.00    +0.000 C 
ATOM     20  C   UNL     1       8.131  40.274  29.396  0.00  0.00    +0.000 C 
ATOM     21  C   UNL     1       8.108  41.173  28.152  0.00  0.00    +0.000 C 
ENDBRANCH  12  20
ENDBRANCH   1  12
TORSDOF 5
ENDMDL
MODEL 2
REMARK VINA RESULT:      -6.0      2.393      3.273
REMARK  Name = 
REMARK  7 active torsions:
REMARK  status: ('A' for Active; 'I' for Inactive)
REMARK    1  A    between atoms: C_1  and  C_2
REMARK    2  A    between atoms: C_2  and  C_3
REMARK    3  A    between atoms: C_2  and  C_4
REMARK    4  A    between atoms: C_4  and  C_5
REMARK    5  A    between atoms: C_4  and  N_15
REMARK    6  A    between atoms: C_9  and  C_10
REMARK    7  A    between atoms: C_10  and  O_11
REMARK                            x       y       z     vdW  Elec       q    Type
REMARK                         _______ _______ _______ _____ _____    ______ ____
ROOT
ATOM      1  C   UNL     1      10.469  40.076  31.211  0.00  0.00    +0.000 A 
ATOM      2  C   UNL     1      10.331  39.689  29.859  0.00  0.00    +0.000 A 
ATOM      3 CL   UNL     1       9.059  40.265  28.840  0.00  0.00    +0.000 Cl
ATOM      4  C   UNL     1      11.244  38.805  29.260  0.00  0.00    +0.000 A 
ATOM      5  C   UNL     1      12.349  38.315  29.967  0.00  0.00    +0.000 A 
ATOM      6  C   UNL     1      12.529  38.744  31.284  0.00  0.00    +0.000 A 
ATOM      7  C   UNL     1      11.597  39.584  31.900  0.00  0.00    +0.000 A 
ENDROOT
BRANCH   5   8
ATOM      8  C   UNL     1      13.318  37.355  29.342  0.00  0.00    +0.000 C 
ATOM      9  F   UNL     1      14.620  37.718  29.487  0.00  0.00    +0.000 F 
BRANCH   8  10
ATOM     10  O   UNL     1      13.097  37.328  27.948  0.00  0.00    +0.000 OA
ATOM     11  H   UNL     1      12.128  37.304  27.883  0.00  0.00    +0.000 HD
ENDBRANCH   8  10
ENDBRANCH   5   8
BRANCH   1  12
ATOM     12  C   UNL     1       9.472  41.001  31.930  0.00  0.00    +0.000 C 
BRANCH  12  13
ATOM     13  N   UNL     1       9.405  40.819  33.393  0.00  0.00    +0.000 NA
ATOM     14  C   UNL     1       8.538  39.785  33.963  0.00  0.00    +0.000 C 
ATOM     15  C   UNL     1       7.186  40.279  34.508  0.00  0.00    +0.000 C 
ATOM     16  O   UNL     1       7.318  41.433  35.347  0.00  0.00    +0.000 OA
ATOM     17  C   UNL     1       7.997  42.483  34.648  0.00  0.00    +0.000 C 
ATOM     18  C   UNL     1       9.400  42.027  34.228  0.00  0.00    +0.000 C 
ENDBRANCH  12  13
BRANCH  12  20
ATOM     19  C   UNL     1      10.950  42.758  30.754  0.00  0.00    +0.000 C 
ATOM     20  C   UNL     1       9.665  42.525  31.565  0.00  0.00    +0.000 C 
ATOM     21  C   UNL     1       8.485  43.105  30.773  0.00  0.00    +0.000 C 
ENDBRANCH  12  20
ENDBRANCH   1  12
TORSDOF 5
ENDMDL
MODEL 3
REMARK VINA RESULT:      -5.8      2.705      4.652
REMARK  Name = 
REMARK  7 active torsions:
REMARK  status: ('A' for Active; 'I' for Inactive)
REMARK    1  A    between atoms: C_1  and  C_2
REMARK    2  A    between atoms: C_2  and  C_3
REMARK    3  A    between atoms: C_2  and  C_4
REMARK    4  A    between atoms: C_4  and  C_5
REMARK    5  A    between atoms: C_4  and  N_15
REMARK    6  A    between atoms: C_9  and  C_10
REMARK    7  A    between atoms: C_10  and  O_11
REMARK                            x       y       z     vdW  Elec       q    Type
REMARK                         _______ _______ _______ _____ _____    ______ ____
ROOT
ATOM      1  C   UNL     1      10.783  42.625  32.522  0.00  0.00    +0.000 A 
ATOM      2  C   UNL     1      10.865  42.666  31.112  0.00  0.00    +0.000 A 
ATOM      3 CL   UNL     1      10.779  44.136  30.206  0.00  0.00    +0.000 Cl
ATOM      4  C   UNL     1      11.031  41.491  30.361  0.00  0.00    +0.000 A 
ATOM      5  C   UNL     1      11.169  40.245  30.984  0.00  0.00    +0.000 A 
ATOM      6  C   UNL     1      11.157  40.204  32.380  0.00  0.00    +0.000 A 
ATOM      7  C   UNL     1      10.942  41.363  33.130  0.00  0.00    +0.000 A 
ENDROOT
BRANCH   5   8
ATOM      8  C   UNL     1      11.327  38.982  30.188  0.00  0.00    +0.000 C 
ATOM      9  F   UNL     1      12.313  38.165  30.647  0.00  0.00    +0.000 F 
BRANCH   8  10
ATOM     10  O   UNL     1      11.710  39.318  28.872  0.00  0.00    +0.000 OA
ATOM     11  H   UNL     1      10.998  38.933  28.335  0.00  0.00    +0.000 HD
ENDBRANCH   8  10
ENDBRANCH   5   8
BRANCH   1  12
ATOM     12  C   UNL     1      10.554  43.874  33.390  0.00  0.00    +0.000 C 
BRANCH  12  13
ATOM     13  N   UNL     1       9.143  44.132  33.741  0.00  0.00    +0.000 NA
ATOM     14  C   UNL     1       8.301  43.039  34.235  0.00  0.00    +0.000 C 
ATOM     15  C   UNL     1       7.360  42.404  33.195  0.00  0.00    +0.000 C 
ATOM     16  O   UNL     1       6.635  43.381  32.439  0.00  0.00    +0.000 OA
ATOM     17  C   UNL     1       7.539  44.299  31.811  0.00  0.00    +0.000 C 
ATOM     18  C   UNL     1       8.378  45.029  32.867  0.00  0.00    +0.000 C 
ENDBRANCH  12  13
BRANCH  12  20
ATOM     19  C   UNL     1      12.957  43.993  34.320  0.00  0.00    +0.000 C 
ATOM     20  C   UNL     1      11.465  43.911  34.680  0.00  0.00    +0.000 C 
ATOM     21  C   UNL     1      11.130  45.081  35.616  0.00  0.00    +0.000 C 
ENDBRANCH  12  20
ENDBRANCH   1  12
TORSDOF 5
ENDMDL
MODEL 4
REMARK VINA RESULT:      -5.3      2.682      3.777
REMARK  Name = 
REMARK  7 active torsions:
REMARK  status: ('A' for Active; 'I' for Inactive)
REMARK    1  A    between atoms: C_1  and  C_2
REMARK    2  A    between atoms: C_2  and  C_3
REMARK    3  A    between atoms: C_2  and  C_4
REMARK    4  A    between atoms: C_4  and  C_5
REMARK    5  A    between atoms: C_4  and  N_15
REMARK    6  A    between atoms: C_9  and  C_10
REMARK    7  A    between atoms: C_10  and  O_11
REMARK                            x       y       z     vdW  Elec       q    Type
REMARK                         _______ _______ _______ _____ _____    ______ ____
ROOT
ATOM      1  C   UNL     1      10.375  41.539  32.436  0.00  0.00    +0.000 A 
ATOM      2  C   UNL     1      10.083  41.748  31.069  0.00  0.00    +0.000 A 
ATOM      3 CL   UNL     1       9.239  43.142  30.490  0.00  0.00    +0.000 Cl
ATOM      4  C   UNL     1      10.478  40.821  30.092  0.00  0.00    +0.000 A 
ATOM      5  C   UNL     1      11.216  39.680  30.431  0.00  0.00    +0.000 A 
ATOM      6  C   UNL     1      11.567  39.499  31.771  0.00  0.00    +0.000 A 
ATOM      7  C   UNL     1      11.133  40.393  32.753  0.00  0.00    +0.000 A 
ENDROOT
BRANCH   5   8
ATOM      8  C   UNL     1      11.625  38.673  29.396  0.00  0.00    +0.000 C 
ATOM      9  F   UNL     1      10.586  37.961  28.884  0.00  0.00    +0.000 F 
BRANCH   8  10
ATOM     10  O   UNL     1      12.466  37.714  30.000  0.00  0.00    +0.000 OA
ATOM     11  H   UNL     1      13.224  37.680  29.394  0.00  0.00    +0.000 HD
ENDBRANCH   8  10
ENDBRANCH   5   8
BRANCH   1  12
ATOM     12  C   UNL     1       9.925  42.497  33.551  0.00  0.00    +0.000 C 
BRANCH  12  13
ATOM     13  N   UNL     1      10.225  43.921  33.302  0.00  0.00    +0.000 NA
ATOM     14  C   UNL     1      11.611  44.394  33.352  0.00  0.00    +0.000 C 
ATOM     15  C   UNL     1      12.026  45.097  34.657  0.00  0.00    +0.000 C 
ATOM     16  O   UNL     1      11.075  46.080  35.080  0.00  0.00    +0.000 OA
ATOM     17  C   UNL     1       9.774  45.494  35.212  0.00  0.00    +0.000 C 
ATOM     18  C   UNL     1       9.309  44.918  33.868  0.00  0.00    +0.000 C 
ENDBRANCH  12  13
BRANCH  12  20
ATOM     19  C   UNL     1       7.742  41.178  33.160  0.00  0.00    +0.000 C 
ATOM     20  C   UNL     1       8.410  42.310  33.957  0.00  0.00    +0.000 C 
ATOM     21  C   UNL     1       8.222  42.020  35.453  0.00  0.00    +0.000 C 
ENDBRANCH  12  20
ENDBRANCH   1  12
TORSDOF 5
ENDMDL
MODEL 5
REMARK VINA RESULT:      -5.2      2.830      4.306
REMARK  Name = 
REMARK  7 active torsions:
REMARK  status: ('A' for Active; 'I' for Inactive)
REMARK    1  A    between atoms: C_1  and  C_2
REMARK    2  A    between atoms: C_2  and  C_3
REMARK    3  A    between atoms: C_2  and  C_4
REMARK    4  A    between atoms: C_4  and  C_5
REMARK    5  A    between atoms: C_4  and  N_15
REMARK    6  A    between atoms: C_9  and  C_10
REMARK    7  A    between atoms: C_10  and  O_11
REMARK                            x       y       z     vdW  Elec       q    Type
REMARK                         _______ _______ _______ _____ _____    ______ ____
ROOT
ATOM      1  C   UNL     1      10.100  42.069  31.653  0.00  0.00    +0.000 A 
ATOM      2  C   UNL     1       9.346  41.850  30.478  0.00  0.00    +0.000 A 
ATOM      3 CL   UNL     1       8.072  42.902  29.968  0.00  0.00    +0.000 Cl
ATOM      4  C   UNL     1       9.603  40.750  29.645  0.00  0.00    +0.000 A 
ATOM      5  C   UNL     1      10.647  39.858  29.922  0.00  0.00    +0.000 A 
ATOM      6  C   UNL     1      11.440  40.104  31.045  0.00  0.00    +0.000 A 
ATOM      7  C   UNL     1      11.156  41.169  31.905  0.00  0.00    +0.000 A 
ENDROOT
BRANCH   5   8
ATOM      8  C   UNL     1      10.916  38.668  29.048  0.00  0.00    +0.000 C 
ATOM      9  F   UNL     1       9.833  37.865  28.867  0.00  0.00    +0.000 F 
BRANCH   8  10
ATOM     10  O   UNL     1      11.879  37.850  29.677  0.00  0.00    +0.000 OA
ATOM     11  H   UNL     1      12.528  37.699  28.970  0.00  0.00    +0.000 HD
ENDBRANCH   8  10
ENDBRANCH   5   8
BRANCH   1  12
ATOM     12  C   UNL     1       9.830  43.229  32.626  0.00  0.00    +0.000 C 
BRANCH  12  13
ATOM     13  N   UNL     1      10.118  42.928  34.042  0.00  0.00    +0.000 NA
ATOM     14  C   UNL     1       9.017  42.643  34.967  0.00  0.00    +0.000 C 
ATOM     15  C   UNL     1       8.588  43.816  35.868  0.00  0.00    +0.000 C 
ATOM     16  O   UNL     1       9.700  44.466  36.493  0.00  0.00    +0.000 OA
ATOM     17  C   UNL     1      10.641  44.905  35.506  0.00  0.00    +0.000 C 
ATOM     18  C   UNL     1      11.170  43.709  34.703  0.00  0.00    +0.000 C 
ENDBRANCH  12  13
BRANCH  12  20
ATOM     19  C   UNL     1      11.373  44.400  30.922  0.00  0.00    +0.000 C 
ATOM     20  C   UNL     1      10.524  44.579  32.191  0.00  0.00    +0.000 C 
ATOM     21  C   UNL     1       9.521  45.715  31.943  0.00  0.00    +0.000 C 
ENDBRANCH  12  20
ENDBRANCH   1  12
TORSDOF 5
ENDMDL
MODEL 6
REMARK VINA RESULT:      -4.8      4.555      5.652
REMARK  Name = 
REMARK  7 active torsions:
REMARK  status: ('A' for Active; 'I' for Inactive)
REMARK    1  A    between atoms: C_1  and  C_2
REMARK    2  A    between atoms: C_2  and  C_3
REMARK    3  A    between atoms: C_2  and  C_4
REMARK    4  A    between atoms: C_4  and  C_5
REMARK    5  A    between atoms: C_4  and  N_15
REMARK    6  A    between atoms: C_9  and  C_10
REMARK    7  A    between atoms: C_10  and  O_11
REMARK                            x       y       z     vdW  Elec       q    Type
REMARK                         _______ _______ _______ _____ _____    ______ ____
ROOT
ATOM      1  C   UNL     1       8.384  40.761  34.065  0.00  0.00    +0.000 A 
ATOM      2  C   UNL     1       7.688  41.328  35.156  0.00  0.00    +0.000 A 
ATOM      3 CL   UNL     1       6.941  42.886  35.089  0.00  0.00    +0.000 Cl
ATOM      4  C   UNL     1       7.558  40.637  36.372  0.00  0.00    +0.000 A 
ATOM      5  C   UNL     1       8.072  39.344  36.530  0.00  0.00    +0.000 A 
ATOM      6  C   UNL     1       8.704  38.750  35.435  0.00  0.00    +0.000 A 
ATOM      7  C   UNL     1       8.879  39.453  34.239  0.00  0.00    +0.000 A 
ENDROOT
BRANCH   5   8
ATOM      8  C   UNL     1       7.956  38.606  37.831  0.00  0.00    +0.000 C 
ATOM      9  F   UNL     1       8.908  38.945  38.741  0.00  0.00    +0.000 F 
BRANCH   8  10
ATOM     10  O   UNL     1       8.148  37.228  37.593  0.00  0.00    +0.000 OA
ATOM     11  H   UNL     1       8.322  37.197  36.638  0.00  0.00    +0.000 HD
ENDBRANCH   8  10
ENDBRANCH   5   8
BRANCH   1  12
ATOM     12  C   UNL     1       8.598  41.493  32.729  0.00  0.00    +0.000 C 
BRANCH  12  13
ATOM     13  N   UNL     1       9.785  42.370  32.687  0.00  0.00    +0.000 NA
ATOM     14  C   UNL     1      10.714  42.396  33.820  0.00  0.00    +0.000 C 
ATOM     15  C   UNL     1      10.546  43.581  34.789  0.00  0.00    +0.000 C 
ATOM     16  O   UNL     1      10.444  44.838  34.110  0.00  0.00    +0.000 OA
ATOM     17  C   UNL     1       9.373  44.806  33.158  0.00  0.00    +0.000 C 
ATOM     18  C   UNL     1       9.620  43.710  32.113  0.00  0.00    +0.000 C 
ENDBRANCH  12  13
BRANCH  12  20
ATOM     19  C   UNL     1       7.546  40.975  30.431  0.00  0.00    +0.000 C 
ATOM     20  C   UNL     1       8.575  40.526  31.480  0.00  0.00    +0.000 C 
ATOM     21  C   UNL     1       9.942  40.404  30.793  0.00  0.00    +0.000 C 
ENDBRANCH  12  20
ENDBRANCH   1  12
TORSDOF 5
ENDMDL
MODEL 7
REMARK VINA RESULT:      -4.7      4.482      6.248
REMARK  Name = 
REMARK  7 active torsions:
REMARK  status: ('A' for Active; 'I' for Inactive)
REMARK    1  A    between atoms: C_1  and  C_2
REMARK    2  A    between atoms: C_2  and  C_3
REMARK    3  A    between atoms: C_2  and  C_4
REMARK    4  A    between atoms: C_4  and  C_5
REMARK    5  A    between atoms: C_4  and  N_15
REMARK    6  A    between atoms: C_9  and  C_10
REMARK    7  A    between atoms: C_10  and  O_11
REMARK                            x       y       z     vdW  Elec       q    Type
REMARK                         _______ _______ _______ _____ _____    ______ ____
ROOT
ATOM      1  C   UNL     1      10.266  42.836  33.394  0.00  0.00    +0.000 A 
ATOM      2  C   UNL     1      10.266  41.435  33.212  0.00  0.00    +0.000 A 
ATOM      3 CL   UNL     1      11.357  40.625  32.143  0.00  0.00    +0.000 Cl
ATOM      4  C   UNL     1       9.366  40.612  33.908  0.00  0.00    +0.000 A 
ATOM      5  C   UNL     1       8.471  41.145  34.844  0.00  0.00    +0.000 A 
ATOM      6  C   UNL     1       8.510  42.521  35.080  0.00  0.00    +0.000 A 
ATOM      7  C   UNL     1       9.369  43.350  34.353  0.00  0.00    +0.000 A 
ENDROOT
BRANCH   5   8
ATOM      8  C   UNL     1       7.493  40.276  35.579  0.00  0.00    +0.000 C 
ATOM      9  F   UNL     1       6.890  39.344  34.793  0.00  0.00    +0.000 F 
BRANCH   8  10
ATOM     10  O   UNL     1       6.441  41.083  36.064  0.00  0.00    +0.000 OA
ATOM     11  H   UNL     1       5.765  40.995  35.373  0.00  0.00    +0.000 HD
ENDBRANCH   8  10
ENDBRANCH   5   8
BRANCH   1  12
ATOM     12  C   UNL     1      11.195  43.787  32.622  0.00  0.00    +0.000 C 
BRANCH  12  13
ATOM     13  N   UNL     1      10.507  44.701  31.688  0.00  0.00    +0.000 NA
ATOM     14  C   UNL     1       9.364  44.222  30.907  0.00  0.00    +0.000 C 
ATOM     15  C   UNL     1       9.671  43.838  29.448  0.00  0.00    +0.000 C 
ATOM     16  O   UNL     1      10.447  44.832  28.768  0.00  0.00    +0.000 OA
ATOM     17  C   UNL     1      11.657  45.100  29.487  0.00  0.00    +0.000 C 
ATOM     18  C   UNL     1      11.338  45.616  30.896  0.00  0.00    +0.000 C 
ENDBRANCH  12  13
BRANCH  12  20
ATOM     19  C   UNL     1      11.434  45.586  34.455  0.00  0.00    +0.000 C 
ATOM     20  C   UNL     1      12.183  44.588  33.559  0.00  0.00    +0.000 C 
ATOM     21  C   UNL     1      13.028  43.674  34.458  0.00  0.00    +0.000 C 
ENDBRANCH  12  20
ENDBRANCH   1  12
TORSDOF 5
ENDMDL
MODEL 8
REMARK VINA RESULT:      -4.6      4.619      6.154
REMARK  Name = 
REMARK  7 active torsions:
REMARK  status: ('A' for Active; 'I' for Inactive)
REMARK    1  A    between atoms: C_1  and  C_2
REMARK    2  A    between atoms: C_2  and  C_3
REMARK    3  A    between atoms: C_2  and  C_4
REMARK    4  A    between atoms: C_4  and  C_5
REMARK    5  A    between atoms: C_4  and  N_15
REMARK    6  A    between atoms: C_9  and  C_10
REMARK    7  A    between atoms: C_10  and  O_11
REMARK                            x       y       z     vdW  Elec       q    Type
REMARK                         _______ _______ _______ _____ _____    ______ ____
ROOT
ATOM      1  C   UNL     1       8.176  41.039  33.975  0.00  0.00    +0.000 A 
ATOM      2  C   UNL     1       7.434  40.617  32.849  0.00  0.00    +0.000 A 
ATOM      3 CL   UNL     1       5.723  40.371  32.888  0.00  0.00    +0.000 Cl
ATOM      4  C   UNL     1       8.061  40.377  31.615  0.00  0.00    +0.000 A 
ATOM      5  C   UNL     1       9.433  40.595  31.445  0.00  0.00    +0.000 A 
ATOM      6  C   UNL     1      10.163  41.077  32.534  0.00  0.00    +0.000 A 
ATOM      7  C   UNL     1       9.553  41.269  33.777  0.00  0.00    +0.000 A 
ENDROOT
BRANCH   5   8
ATOM      8  C   UNL     1      10.114  40.323  30.136  0.00  0.00    +0.000 C 
ATOM      9  F   UNL     1      10.582  39.052  30.015  0.00  0.00    +0.000 F 
BRANCH   8  10
ATOM     10  O   UNL     1      11.257  41.146  30.036  0.00  0.00    +0.000 OA
ATOM     11  H   UNL     1      11.252  41.625  30.881  0.00  0.00    +0.000 HD
ENDBRANCH   8  10
ENDBRANCH   5   8
BRANCH   1  12
ATOM     12  C   UNL     1       7.549  41.269  35.361  0.00  0.00    +0.000 C 
BRANCH  12  13
ATOM     13  N   UNL     1       7.584  40.097  36.257  0.00  0.00    +0.000 NA
ATOM     14  C   UNL     1       8.462  38.965  35.946  0.00  0.00    +0.000 C 
ATOM     15  C   UNL     1       7.777  37.756  35.283  0.00  0.00    +0.000 C 
ATOM     16  O   UNL     1       6.571  37.371  35.953  0.00  0.00    +0.000 OA
ATOM     17  C   UNL     1       5.669  38.481  36.035  0.00  0.00    +0.000 C 
ATOM     18  C   UNL     1       6.310  39.633  36.820  0.00  0.00    +0.000 C 
ENDBRANCH  12  13
BRANCH  12  20
ATOM     19  C   UNL     1       7.466  43.839  35.568  0.00  0.00    +0.000 C 
ATOM     20  C   UNL     1       8.114  42.549  36.094  0.00  0.00    +0.000 C 
ATOM     21  C   UNL     1       7.922  42.500  37.616  0.00  0.00    +0.000 C 
ENDBRANCH  12  20
ENDBRANCH   1  12
TORSDOF 5
ENDMDL
MODEL 9
REMARK VINA RESULT:      -4.5      4.838      6.046
REMARK  Name = 
REMARK  7 active torsions:
REMARK  status: ('A' for Active; 'I' for Inactive)
REMARK    1  A    between atoms: C_1  and  C_2
REMARK    2  A    between atoms: C_2  and  C_3
REMARK    3  A    between atoms: C_2  and  C_4
REMARK    4  A    between atoms: C_4  and  C_5
REMARK    5  A    between atoms: C_4  and  N_15
REMARK    6  A    between atoms: C_9  and  C_10
REMARK    7  A    between atoms: C_10  and  O_11
REMARK                            x       y       z     vdW  Elec       q    Type
REMARK                         _______ _______ _______ _____ _____    ______ ____
ROOT
ATOM      1  C   UNL     1       8.023  40.170  33.736  0.00  0.00    +0.000 A 
ATOM      2  C   UNL     1       6.718  39.629  33.731  0.00  0.00    +0.000 A 
ATOM      3 CL   UNL     1       5.443  40.256  32.747  0.00  0.00    +0.000 Cl
ATOM      4  C   UNL     1       6.386  38.527  34.537  0.00  0.00    +0.000 A 
ATOM      5  C   UNL     1       7.348  37.896  35.336  0.00  0.00    +0.000 A 
ATOM      6  C   UNL     1       8.656  38.383  35.295  0.00  0.00    +0.000 A 
ATOM      7  C   UNL     1       8.980  39.509  34.534  0.00  0.00    +0.000 A 
ENDROOT
BRANCH   5   8
ATOM      8  C   UNL     1       6.997  36.732  36.214  0.00  0.00    +0.000 C 
ATOM      9  F   UNL     1       7.132  35.524  35.603  0.00  0.00    +0.000 F 
BRANCH   8  10
ATOM     10  O   UNL     1       5.631  36.817  36.561  0.00  0.00    +0.000 OA
ATOM     11  H   UNL     1       5.412  35.902  36.800  0.00  0.00    +0.000 HD
ENDBRANCH   8  10
ENDBRANCH   5   8
BRANCH   1  12
ATOM     12  C   UNL     1       8.428  41.403  32.911  0.00  0.00    +0.000 C 
BRANCH  12  13
ATOM     13  N   UNL     1       8.316  42.689  33.628  0.00  0.00    +0.000 NA
ATOM     14  C   UNL     1       8.678  42.770  35.045  0.00  0.00    +0.000 C 
ATOM     15  C   UNL     1       7.498  42.738  36.034  0.00  0.00    +0.000 C 
ATOM     16  O   UNL     1       6.445  43.636  35.665  0.00  0.00    +0.000 OA
ATOM     17  C   UNL     1       5.997  43.360  34.333  0.00  0.00    +0.000 C 
ATOM     18  C   UNL     1       7.149  43.530  33.335  0.00  0.00    +0.000 C 
ENDBRANCH  12  13
BRANCH  12  20
ATOM     19  C   UNL     1       9.801  40.379  30.982  0.00  0.00    +0.000 C 
ATOM     20  C   UNL     1       9.851  41.262  32.239  0.00  0.00    +0.000 C 
ATOM     21  C   UNL     1      10.468  42.614  31.854  0.00  0.00    +0.000 C 
ENDBRANCH  12  20
ENDBRANCH   1  12
TORSDOF 5
ENDMDL
MODEL 10
REMARK VINA RESULT:      -4.5      4.034      5.212
REMARK  Name = 
REMARK  7 active torsions:
REMARK  status: ('A' for Active; 'I' for Inactive)
REMARK    1  A    between atoms: C_1  and  C_2
REMARK    2  A    between atoms: C_2  and  C_3
REMARK    3  A    between atoms: C_2  and  C_4
REMARK    4  A    between atoms: C_4  and  C_5
REMARK    5  A    between atoms: C_4  and  N_15
REMARK    6  A    between atoms: C_9  and  C_10
REMARK    7  A    between atoms: C_10  and  O_11
REMARK                            x       y       z     vdW  Elec       q    Type
REMARK                         _______ _______ _______ _____ _____    ______ ____
ROOT
ATOM      1  C   UNL     1       7.736  41.054  32.926  0.00  0.00    +0.000 A 
ATOM      2  C   UNL     1       8.763  40.945  33.890  0.00  0.00    +0.000 A 
ATOM      3 CL   UNL     1      10.093  42.047  33.977  0.00  0.00    +0.000 Cl
ATOM      4  C   UNL     1       8.752  39.920  34.850  0.00  0.00    +0.000 A 
ATOM      5  C   UNL     1       7.699  39.000  34.916  0.00  0.00    +0.000 A 
ATOM      6  C   UNL     1       6.645  39.141  34.009  0.00  0.00    +0.000 A 
ATOM      7  C   UNL     1       6.677  40.128  33.021  0.00  0.00    +0.000 A 
ENDROOT
BRANCH   5   8
ATOM      8  C   UNL     1       7.688  37.890  35.926  0.00  0.00    +0.000 C 
ATOM      9  F   UNL     1       7.315  38.286  37.172  0.00  0.00    +0.000 F 
BRANCH   8  10
ATOM     10  O   UNL     1       9.003  37.397  36.075  0.00  0.00    +0.000 OA
ATOM     11  H   UNL     1       9.485  37.850  35.364  0.00  0.00    +0.000 HD
ENDBRANCH   8  10
ENDBRANCH   5   8
BRANCH   1  12
ATOM     12  C   UNL     1       7.724  42.126  31.823  0.00  0.00    +0.000 C 
BRANCH  12  13
ATOM     13  N   UNL     1       8.507  41.783  30.619  0.00  0.00    +0.000 NA
ATOM     14  C   UNL     1       8.935  40.399  30.395  0.00  0.00    +0.000 C 
ATOM     15  C   UNL     1      10.395  40.088  30.770  0.00  0.00    +0.000 C 
ATOM     16  O   UNL     1      11.315  41.056  30.254  0.00  0.00    +0.000 OA
ATOM     17  C   UNL     1      10.951  42.372  30.688  0.00  0.00    +0.000 C 
ATOM     18  C   UNL     1       9.544  42.729  30.190  0.00  0.00    +0.000 C 
ENDBRANCH  12  13
BRANCH  12  20
ATOM     19  C   UNL     1       6.109  44.118  31.544  0.00  0.00    +0.000 C 
ATOM     20  C   UNL     1       6.268  42.594  31.427  0.00  0.00    +0.000 C 
ATOM     21  C   UNL     1       5.872  42.176  30.004  0.00  0.00    +0.000 C 
ENDBRANCH  12  20
ENDBRANCH   1  12
TORSDOF 5
ENDMDL
