MODEL 1
REMARK VINA RESULT:      -7.1      0.000      0.000
REMARK  Name = 
REMARK  7 active torsions:
REMARK  status: ('A' for Active; 'I' for Inactive)
REMARK    1  A    between atoms: C_1  and  C_2
REMARK    2  A    between atoms: C_2  and  C_3
REMARK    3  A    between atoms: C_3  and  N_4
REMARK    4  A    between atoms: C_3  and  C_11
REMARK    5  A    between atoms: N_4  and  C_5
REMARK    6  A    between atoms: C_14  and  C_15
REMARK    7  A    between atoms: C_15  and  C_16
REMARK                            x       y       z     vdW  Elec       q    Type
REMARK                         _______ _______ _______ _____ _____    ______ ____
ROOT
ATOM      1  C   UNL     1       9.472  39.207  28.892  0.00  0.00    +0.000 A 
ATOM      2  C   UNL     1       9.105  37.937  28.422  0.00  0.00    +0.000 A 
ATOM      3  C   UNL     1       7.790  37.666  28.034  0.00  0.00    +0.000 A 
ATOM      4  C   UNL     1       6.805  38.657  28.122  0.00  0.00    +0.000 A 
ATOM      5  C   UNL     1       7.164  39.930  28.583  0.00  0.00    +0.000 A 
ATOM      6  C   UNL     1       8.485  40.208  28.940  0.00  0.00    +0.000 A 
ENDROOT
BRANCH   1   7
ATOM      7  C   UNL     1      10.917  39.474  29.318  0.00  0.00    +0.000 C 
BRANCH   7   9
ATOM      8  C   UNL     1      11.023  39.852  31.849  0.00  0.00    +0.000 C 
ATOM      9  C   UNL     1      10.967  40.502  30.465  0.00  0.00    +0.000 C 
ENDBRANCH   7   9
BRANCH   7  10
ATOM     10  N   UNL     1      11.540  38.198  29.727  0.00  0.00    +0.000 N 
ATOM     11  H   UNL     1      10.960  37.413  29.432  0.00  0.00    +0.000 HD
BRANCH  10  12
ATOM     12  C   UNL     1      12.871  37.914  29.407  0.00  0.00    +0.000 A 
ATOM     13  C   UNL     1      13.858  37.497  30.281  0.00  0.00    +0.000 A 
ATOM     14  N   UNL     1      15.128  37.183  29.928  0.00  0.00    +0.000 NA
ATOM     15  C   UNL     1      15.402  37.262  28.619  0.00  0.00    +0.000 A 
ATOM     16  N   UNL     1      14.535  37.595  27.655  0.00  0.00    +0.000 NA
ATOM     17  C   UNL     1      13.289  37.891  28.080  0.00  0.00    +0.000 A 
ENDBRANCH  10  12
ENDBRANCH   7  10
ENDBRANCH   1   7
BRANCH   4  18
ATOM     18  C   UNL     1       5.367  38.345  27.780  0.00  0.00    +0.000 C 
BRANCH  18  19
ATOM     19  C   UNL     1       4.909  39.058  26.566  0.00  0.00    +0.000 A 
ATOM     20  N   UNL     1       3.719  39.537  26.268  0.00  0.00    +0.000 NA
ATOM     21  N   UNL     1       3.835  40.124  25.022  0.00  0.00    +0.000 NA
ATOM     22  C   UNL     1       5.083  39.956  24.658  0.00  0.00    +0.000 A 
ATOM     23  O   UNL     1       5.834  39.278  25.573  0.00  0.00    +0.000 OA
ENDBRANCH  18  19
ENDBRANCH   4  18
TORSDOF 6
ENDMDL
MODEL 2
REMARK VINA RESULT:      -6.9      1.699      2.197
REMARK  Name = 
REMARK  7 active torsions:
REMARK  status: ('A' for Active; 'I' for Inactive)
REMARK    1  A    between atoms: C_1  and  C_2
REMARK    2  A    between atoms: C_2  and  C_3
REMARK    3  A    between atoms: C_3  and  N_4
REMARK    4  A    between atoms: C_3  and  C_11
REMARK    5  A    between atoms: N_4  and  C_5
REMARK    6  A    between atoms: C_14  and  C_15
REMARK    7  A    between atoms: C_15  and  C_16
REMARK                            x       y       z     vdW  Elec       q    Type
REMARK                         _______ _______ _______ _____ _____    ______ ____
ROOT
ATOM      1  C   UNL     1       9.705  39.339  29.096  0.00  0.00    +0.000 A 
ATOM      2  C   UNL     1       9.395  38.058  28.613  0.00  0.00    +0.000 A 
ATOM      3  C   UNL     1       8.149  37.788  28.042  0.00  0.00    +0.000 A 
ATOM      4  C   UNL     1       7.175  38.790  27.953  0.00  0.00    +0.000 A 
ATOM      5  C   UNL     1       7.478  40.073  28.426  0.00  0.00    +0.000 A 
ATOM      6  C   UNL     1       8.735  40.349  28.968  0.00  0.00    +0.000 A 
ENDROOT
BRANCH   1   7
ATOM      7  C   UNL     1      11.074  39.605  29.726  0.00  0.00    +0.000 C 
BRANCH   7   9
ATOM      8  C   UNL     1      11.028  39.771  32.281  0.00  0.00    +0.000 C 
ATOM      9  C   UNL     1      10.940  40.527  30.954  0.00  0.00    +0.000 C 
ENDBRANCH   7   9
BRANCH   7  10
ATOM     10  N   UNL     1      11.689  38.315  30.099  0.00  0.00    +0.000 N 
ATOM     11  H   UNL     1      11.059  37.546  29.872  0.00  0.00    +0.000 HD
BRANCH  10  12
ATOM     12  C   UNL     1      12.975  37.980  29.666  0.00  0.00    +0.000 A 
ATOM     13  C   UNL     1      14.015  37.516  30.451  0.00  0.00    +0.000 A 
ATOM     14  N   UNL     1      15.237  37.155  29.988  0.00  0.00    +0.000 NA
ATOM     15  C   UNL     1      15.402  37.235  28.662  0.00  0.00    +0.000 A 
ATOM     16  N   UNL     1      14.471  37.612  27.777  0.00  0.00    +0.000 NA
ATOM     17  C   UNL     1      13.278  37.953  28.308  0.00  0.00    +0.000 A 
ENDBRANCH  10  12
ENDBRANCH   7  10
ENDBRANCH   1   7
BRANCH   4  18
ATOM     18  C   UNL     1       5.800  38.480  27.410  0.00  0.00    +0.000 C 
BRANCH  18  19
ATOM     19  C   UNL     1       5.296  37.164  27.868  0.00  0.00    +0.000 A 
ATOM     20  N   UNL     1       4.086  36.809  28.245  0.00  0.00    +0.000 NA
ATOM     21  N   UNL     1       4.153  35.466  28.557  0.00  0.00    +0.000 NA
ATOM     22  C   UNL     1       5.396  35.107  28.347  0.00  0.00    +0.000 A 
ATOM     23  O   UNL     1       6.196  36.125  27.920  0.00  0.00    +0.000 OA
ENDBRANCH  18  19
ENDBRANCH   4  18
TORSDOF 6
ENDMDL
MODEL 3
REMARK VINA RESULT:      -6.3      4.870      6.224
REMARK  Name = 
REMARK  7 active torsions:
REMARK  status: ('A' for Active; 'I' for Inactive)
REMARK    1  A    between atoms: C_1  and  C_2
REMARK    2  A    between atoms: C_2  and  C_3
REMARK    3  A    between atoms: C_3  and  N_4
REMARK    4  A    between atoms: C_3  and  C_11
REMARK    5  A    between atoms: N_4  and  C_5
REMARK    6  A    between atoms: C_14  and  C_15
REMARK    7  A    between atoms: C_15  and  C_16
REMARK                            x       y       z     vdW  Elec       q    Type
REMARK                         _______ _______ _______ _____ _____    ______ ____
ROOT
ATOM      1  C   UNL     1      10.915  42.235  31.780  0.00  0.00    +0.000 A 
ATOM      2  C   UNL     1      11.518  43.300  32.467  0.00  0.00    +0.000 A 
ATOM      3  C   UNL     1      11.564  44.580  31.910  0.00  0.00    +0.000 A 
ATOM      4  C   UNL     1      11.020  44.824  30.643  0.00  0.00    +0.000 A 
ATOM      5  C   UNL     1      10.409  43.769  29.954  0.00  0.00    +0.000 A 
ATOM      6  C   UNL     1      10.336  42.498  30.526  0.00  0.00    +0.000 A 
ENDROOT
BRANCH   1   7
ATOM      7  C   UNL     1      10.887  40.841  32.410  0.00  0.00    +0.000 C 
BRANCH   7   9
ATOM      8  C   UNL     1       8.402  40.473  32.908  0.00  0.00    +0.000 C 
ATOM      9  C   UNL     1       9.789  40.752  33.488  0.00  0.00    +0.000 C 
ENDBRANCH   7   9
BRANCH   7  10
ATOM     10  N   UNL     1      10.664  39.839  31.347  0.00  0.00    +0.000 N 
ATOM     11  H   UNL     1      10.150  40.257  30.572  0.00  0.00    +0.000 HD
BRANCH  10  12
ATOM     12  C   UNL     1      11.728  39.096  30.827  0.00  0.00    +0.000 A 
ATOM     13  C   UNL     1      12.682  38.403  31.551  0.00  0.00    +0.000 A 
ATOM     14  N   UNL     1      13.672  37.651  31.012  0.00  0.00    +0.000 NA
ATOM     15  C   UNL     1      13.676  37.569  29.675  0.00  0.00    +0.000 A 
ATOM     16  N   UNL     1      12.786  38.137  28.852  0.00  0.00    +0.000 NA
ATOM     17  C   UNL     1      11.826  38.867  29.458  0.00  0.00    +0.000 A 
ENDBRANCH  10  12
ENDBRANCH   7  10
ENDBRANCH   1   7
BRANCH   4  18
ATOM     18  C   UNL     1      11.139  46.188  30.005  0.00  0.00    +0.000 C 
BRANCH  18  19
ATOM     19  C   UNL     1      11.100  46.123  28.525  0.00  0.00    +0.000 A 
ATOM     20  N   UNL     1      11.898  45.496  27.687  0.00  0.00    +0.000 NA
ATOM     21  N   UNL     1      11.409  45.747  26.420  0.00  0.00    +0.000 NA
ATOM     22  C   UNL     1      10.353  46.506  26.583  0.00  0.00    +0.000 A 
ATOM     23  O   UNL     1      10.090  46.806  27.888  0.00  0.00    +0.000 OA
ENDBRANCH  18  19
ENDBRANCH   4  18
TORSDOF 6
ENDMDL
MODEL 4
REMARK VINA RESULT:      -5.8      5.241      7.272
REMARK  Name = 
REMARK  7 active torsions:
REMARK  status: ('A' for Active; 'I' for Inactive)
REMARK    1  A    between atoms: C_1  and  C_2
REMARK    2  A    between atoms: C_2  and  C_3
REMARK    3  A    between atoms: C_3  and  N_4
REMARK    4  A    between atoms: C_3  and  C_11
REMARK    5  A    between atoms: N_4  and  C_5
REMARK    6  A    between atoms: C_14  and  C_15
REMARK    7  A    between atoms: C_15  and  C_16
REMARK                            x       y       z     vdW  Elec       q    Type
REMARK                         _______ _______ _______ _____ _____    ______ ____
ROOT
ATOM      1  C   UNL     1      10.661  42.143  33.124  0.00  0.00    +0.000 A 
ATOM      2  C   UNL     1      11.598  42.762  33.966  0.00  0.00    +0.000 A 
ATOM      3  C   UNL     1      11.695  44.154  34.033  0.00  0.00    +0.000 A 
ATOM      4  C   UNL     1      10.865  44.963  33.246  0.00  0.00    +0.000 A 
ATOM      5  C   UNL     1       9.922  44.354  32.409  0.00  0.00    +0.000 A 
ATOM      6  C   UNL     1       9.805  42.963  32.367  0.00  0.00    +0.000 A 
ENDROOT
BRANCH   1   7
ATOM      7  C   UNL     1      10.582  40.616  33.064  0.00  0.00    +0.000 C 
BRANCH   7   9
ATOM      8  C   UNL     1       8.060  40.181  33.157  0.00  0.00    +0.000 C 
ATOM      9  C   UNL     1       9.394  40.098  33.899  0.00  0.00    +0.000 C 
ENDBRANCH   7   9
BRANCH   7  10
ATOM     10  N   UNL     1      10.456  40.198  31.653  0.00  0.00    +0.000 N 
ATOM     11  H   UNL     1      10.271  41.007  31.061  0.00  0.00    +0.000 HD
BRANCH  10  12
ATOM     12  C   UNL     1      11.443  39.417  31.044  0.00  0.00    +0.000 A 
ATOM     13  C   UNL     1      12.376  38.621  31.684  0.00  0.00    +0.000 A 
ATOM     14  N   UNL     1      13.289  37.838  31.059  0.00  0.00    +0.000 NA
ATOM     15  C   UNL     1      13.233  37.836  29.721  0.00  0.00    +0.000 A 
ATOM     16  N   UNL     1      12.352  38.511  28.972  0.00  0.00    +0.000 NA
ATOM     17  C   UNL     1      11.470  39.265  29.661  0.00  0.00    +0.000 A 
ENDBRANCH  10  12
ENDBRANCH   7  10
ENDBRANCH   1   7
BRANCH   4  18
ATOM     18  C   UNL     1      11.022  46.465  33.257  0.00  0.00    +0.000 C 
BRANCH  18  19
ATOM     19  C   UNL     1      10.584  47.087  31.985  0.00  0.00    +0.000 A 
ATOM     20  N   UNL     1       9.488  47.762  31.710  0.00  0.00    +0.000 NA
ATOM     21  N   UNL     1       9.580  48.133  30.383  0.00  0.00    +0.000 NA
ATOM     22  C   UNL     1      10.723  47.656  29.953  0.00  0.00    +0.000 A 
ATOM     23  O   UNL     1      11.420  46.966  30.900  0.00  0.00    +0.000 OA
ENDBRANCH  18  19
ENDBRANCH   4  18
TORSDOF 6
ENDMDL
MODEL 5
REMARK VINA RESULT:      -5.7      5.758      7.428
REMARK  Name = 
REMARK  7 active torsions:
REMARK  status: ('A' for Active; 'I' for Inactive)
REMARK    1  A    between atoms: C_1  and  C_2
REMARK    2  A    between atoms: C_2  and  C_3
REMARK    3  A    between atoms: C_3  and  N_4
REMARK    4  A    between atoms: C_3  and  C_11
REMARK    5  A    between atoms: N_4  and  C_5
REMARK    6  A    between atoms: C_14  and  C_15
REMARK    7  A    between atoms: C_15  and  C_16
REMARK                            x       y       z     vdW  Elec       q    Type
REMARK                         _______ _______ _______ _____ _____    ______ ____
ROOT
ATOM      1  C   UNL     1      11.279  45.218  31.617  0.00  0.00    +0.000 A 
ATOM      2  C   UNL     1      11.875  45.051  30.357  0.00  0.00    +0.000 A 
ATOM      3  C   UNL     1      11.653  45.973  29.331  0.00  0.00    +0.000 A 
ATOM      4  C   UNL     1      10.817  47.077  29.535  0.00  0.00    +0.000 A 
ATOM      5  C   UNL     1      10.224  47.255  30.791  0.00  0.00    +0.000 A 
ATOM      6  C   UNL     1      10.472  46.351  31.825  0.00  0.00    +0.000 A 
ENDROOT
BRANCH   1   7
ATOM      7  C   UNL     1      11.531  44.189  32.721  0.00  0.00    +0.000 C 
BRANCH   7   9
ATOM      8  C   UNL     1      10.422  44.323  35.026  0.00  0.00    +0.000 C 
ATOM      9  C   UNL     1      11.520  44.863  34.108  0.00  0.00    +0.000 C 
ENDBRANCH   7   9
BRANCH   7  10
ATOM     10  N   UNL     1      10.500  43.135  32.639  0.00  0.00    +0.000 N 
ATOM     11  H   UNL     1       9.673  43.488  32.159  0.00  0.00    +0.000 HD
BRANCH  10  12
ATOM     12  C   UNL     1      10.805  41.870  32.128  0.00  0.00    +0.000 A 
ATOM     13  C   UNL     1      11.084  41.558  30.810  0.00  0.00    +0.000 A 
ATOM     14  N   UNL     1      11.424  40.326  30.357  0.00  0.00    +0.000 NA
ATOM     15  C   UNL     1      11.520  39.372  31.291  0.00  0.00    +0.000 A 
ATOM     16  N   UNL     1      11.335  39.539  32.607  0.00  0.00    +0.000 NA
ATOM     17  C   UNL     1      11.003  40.791  32.985  0.00  0.00    +0.000 A 
ENDBRANCH  10  12
ENDBRANCH   7  10
ENDBRANCH   1   7
BRANCH   4  18
ATOM     18  C   UNL     1      10.512  48.030  28.403  0.00  0.00    +0.000 C 
BRANCH  18  19
ATOM     19  C   UNL     1       9.539  47.466  27.438  0.00  0.00    +0.000 A 
ATOM     20  N   UNL     1       9.694  47.159  26.167  0.00  0.00    +0.000 NA
ATOM     21  N   UNL     1       8.482  46.653  25.738  0.00  0.00    +0.000 NA
ATOM     22  C   UNL     1       7.685  46.692  26.778  0.00  0.00    +0.000 A 
ATOM     23  O   UNL     1       8.269  47.207  27.897  0.00  0.00    +0.000 OA
ENDBRANCH  18  19
ENDBRANCH   4  18
TORSDOF 6
ENDMDL
MODEL 6
REMARK VINA RESULT:      -5.2      6.319      8.189
REMARK  Name = 
REMARK  7 active torsions:
REMARK  status: ('A' for Active; 'I' for Inactive)
REMARK    1  A    between atoms: C_1  and  C_2
REMARK    2  A    between atoms: C_2  and  C_3
REMARK    3  A    between atoms: C_3  and  N_4
REMARK    4  A    between atoms: C_3  and  C_11
REMARK    5  A    between atoms: N_4  and  C_5
REMARK    6  A    between atoms: C_14  and  C_15
REMARK    7  A    between atoms: C_15  and  C_16
REMARK                            x       y       z     vdW  Elec       q    Type
REMARK                         _______ _______ _______ _____ _____    ______ ____
ROOT
ATOM      1  C   UNL     1      10.764  44.050  31.070  0.00  0.00    +0.000 A 
ATOM      2  C   UNL     1      11.748  44.522  30.188  0.00  0.00    +0.000 A 
ATOM      3  C   UNL     1      11.607  45.756  29.549  0.00  0.00    +0.000 A 
ATOM      4  C   UNL     1      10.469  46.544  29.766  0.00  0.00    +0.000 A 
ATOM      5  C   UNL     1       9.486  46.084  30.651  0.00  0.00    +0.000 A 
ATOM      6  C   UNL     1       9.643  44.865  31.313  0.00  0.00    +0.000 A 
ENDROOT
BRANCH   1   7
ATOM      7  C   UNL     1      10.939  42.690  31.750  0.00  0.00    +0.000 C 
BRANCH   7   9
ATOM      8  C   UNL     1      12.089  43.142  33.994  0.00  0.00    +0.000 C 
ATOM      9  C   UNL     1      10.776  42.819  33.278  0.00  0.00    +0.000 C 
ENDBRANCH   7   9
BRANCH   7  10
ATOM     10  N   UNL     1       9.950  41.745  31.193  0.00  0.00    +0.000 N 
ATOM     11  H   UNL     1       9.273  42.243  30.616  0.00  0.00    +0.000 HD
BRANCH  10  12
ATOM     12  C   UNL     1      10.361  40.597  30.507  0.00  0.00    +0.000 A 
ATOM     13  C   UNL     1      11.495  39.847  30.761  0.00  0.00    +0.000 A 
ATOM     14  N   UNL     1      11.837  38.710  30.106  0.00  0.00    +0.000 NA
ATOM     15  C   UNL     1      10.972  38.296  29.173  0.00  0.00    +0.000 A 
ATOM     16  N   UNL     1       9.812  38.887  28.860  0.00  0.00    +0.000 NA
ATOM     17  C   UNL     1       9.534  40.010  29.555  0.00  0.00    +0.000 A 
ENDBRANCH  10  12
ENDBRANCH   7  10
ENDBRANCH   1   7
BRANCH   4  18
ATOM     18  C   UNL     1      10.277  47.841  29.016  0.00  0.00    +0.000 C 
BRANCH  18  19
ATOM     19  C   UNL     1      10.875  48.996  29.725  0.00  0.00    +0.000 A 
ATOM     20  N   UNL     1      11.219  49.124  30.989  0.00  0.00    +0.000 NA
ATOM     21  N   UNL     1      11.744  50.393  31.125  0.00  0.00    +0.000 NA
ATOM     22  C   UNL     1      11.681  50.941  29.935  0.00  0.00    +0.000 A 
ATOM     23  O   UNL     1      11.130  50.129  28.988  0.00  0.00    +0.000 OA
ENDBRANCH  18  19
ENDBRANCH   4  18
TORSDOF 6
ENDMDL
MODEL 7
REMARK VINA RESULT:      -4.7      6.761      8.643
REMARK  Name = 
REMARK  7 active torsions:
REMARK  status: ('A' for Active; 'I' for Inactive)
REMARK    1  A    between atoms: C_1  and  C_2
REMARK    2  A    between atoms: C_2  and  C_3
REMARK    3  A    between atoms: C_3  and  N_4
REMARK    4  A    between atoms: C_3  and  C_11
REMARK    5  A    between atoms: N_4  and  C_5
REMARK    6  A    between atoms: C_14  and  C_15
REMARK    7  A    between atoms: C_15  and  C_16
REMARK                            x       y       z     vdW  Elec       q    Type
REMARK                         _______ _______ _______ _____ _____    ______ ____
ROOT
ATOM      1  C   UNL     1       9.110  41.966  33.591  0.00  0.00    +0.000 A 
ATOM      2  C   UNL     1      10.495  41.741  33.628  0.00  0.00    +0.000 A 
ATOM      3  C   UNL     1      11.394  42.725  33.211  0.00  0.00    +0.000 A 
ATOM      4  C   UNL     1      10.928  43.956  32.731  0.00  0.00    +0.000 A 
ATOM      5  C   UNL     1       9.549  44.192  32.697  0.00  0.00    +0.000 A 
ATOM      6  C   UNL     1       8.653  43.219  33.145  0.00  0.00    +0.000 A 
ENDROOT
BRANCH   1   7
ATOM      7  C   UNL     1       8.147  40.867  34.046  0.00  0.00    +0.000 C 
BRANCH   7   9
ATOM      8  C   UNL     1       5.913  40.010  33.133  0.00  0.00    +0.000 C 
ATOM      9  C   UNL     1       7.392  40.271  32.842  0.00  0.00    +0.000 C 
ENDBRANCH   7   9
BRANCH   7  10
ATOM     10  N   UNL     1       8.912  39.824  34.758  0.00  0.00    +0.000 N 
ATOM     11  H   UNL     1       9.856  40.154  34.959  0.00  0.00    +0.000 HD
BRANCH  10  12
ATOM     12  C   UNL     1       8.399  39.215  35.907  0.00  0.00    +0.000 A 
ATOM     13  C   UNL     1       7.539  39.784  36.828  0.00  0.00    +0.000 A 
ATOM     14  N   UNL     1       7.023  39.148  37.908  0.00  0.00    +0.000 NA
ATOM     15  C   UNL     1       7.367  37.861  38.041  0.00  0.00    +0.000 A 
ATOM     16  N   UNL     1       8.143  37.165  37.200  0.00  0.00    +0.000 NA
ATOM     17  C   UNL     1       8.618  37.862  36.147  0.00  0.00    +0.000 A 
ENDBRANCH  10  12
ENDBRANCH   7  10
ENDBRANCH   1   7
BRANCH   4  18
ATOM     18  C   UNL     1      11.895  44.990  32.204  0.00  0.00    +0.000 C 
BRANCH  18  19
ATOM     19  C   UNL     1      11.601  45.374  30.803  0.00  0.00    +0.000 A 
ATOM     20  N   UNL     1      11.249  46.540  30.304  0.00  0.00    +0.000 NA
ATOM     21  N   UNL     1      11.115  46.358  28.942  0.00  0.00    +0.000 NA
ATOM     22  C   UNL     1      11.395  45.097  28.716  0.00  0.00    +0.000 A 
ATOM     23  O   UNL     1      11.703  44.394  29.843  0.00  0.00    +0.000 OA
ENDBRANCH  18  19
ENDBRANCH   4  18
TORSDOF 6
ENDMDL
MODEL 8
REMARK VINA RESULT:      -4.7      6.938      9.155
REMARK  Name = 
REMARK  7 active torsions:
REMARK  status: ('A' for Active; 'I' for Inactive)
REMARK    1  A    between atoms: C_1  and  C_2
REMARK    2  A    between atoms: C_2  and  C_3
REMARK    3  A    between atoms: C_3  and  N_4
REMARK    4  A    between atoms: C_3  and  C_11
REMARK    5  A    between atoms: N_4  and  C_5
REMARK    6  A    between atoms: C_14  and  C_15
REMARK    7  A    between atoms: C_15  and  C_16
REMARK                            x       y       z     vdW  Elec       q    Type
REMARK                         _______ _______ _______ _____ _____    ______ ____
ROOT
ATOM      1  C   UNL     1       8.344  40.143  35.098  0.00  0.00    +0.000 A 
ATOM      2  C   UNL     1       8.673  38.785  34.966  0.00  0.00    +0.000 A 
ATOM      3  C   UNL     1       7.978  37.806  35.680  0.00  0.00    +0.000 A 
ATOM      4  C   UNL     1       6.945  38.163  36.556  0.00  0.00    +0.000 A 
ATOM      5  C   UNL     1       6.605  39.515  36.687  0.00  0.00    +0.000 A 
ATOM      6  C   UNL     1       7.280  40.489  35.949  0.00  0.00    +0.000 A 
ENDROOT
BRANCH   1   7
ATOM      7  C   UNL     1       9.128  41.196  34.311  0.00  0.00    +0.000 C 
BRANCH   7   9
ATOM      8  C   UNL     1      10.514  40.652  32.226  0.00  0.00    +0.000 C 
ATOM      9  C   UNL     1       9.114  40.872  32.803  0.00  0.00    +0.000 C 
ENDBRANCH   7   9
BRANCH   7  10
ATOM     10  N   UNL     1       8.538  42.525  34.569  0.00  0.00    +0.000 N 
ATOM     11  H   UNL     1       7.906  42.481  35.369  0.00  0.00    +0.000 HD
BRANCH  10  12
ATOM     12  C   UNL     1       9.348  43.657  34.703  0.00  0.00    +0.000 A 
ATOM     13  C   UNL     1       9.852  44.436  33.678  0.00  0.00    +0.000 A 
ATOM     14  N   UNL     1      10.596  45.557  33.847  0.00  0.00    +0.000 NA
ATOM     15  C   UNL     1      10.810  45.925  35.116  0.00  0.00    +0.000 A 
ATOM     16  N   UNL     1      10.338  45.303  36.204  0.00  0.00    +0.000 NA
ATOM     17  C   UNL     1       9.603  44.198  35.960  0.00  0.00    +0.000 A 
ENDBRANCH  10  12
ENDBRANCH   7  10
ENDBRANCH   1   7
BRANCH   4  18
ATOM     18  C   UNL     1       6.246  37.114  37.388  0.00  0.00    +0.000 C 
BRANCH  18  19
ATOM     19  C   UNL     1       5.989  35.869  36.627  0.00  0.00    +0.000 A 
ATOM     20  N   UNL     1       6.573  34.692  36.711  0.00  0.00    +0.000 NA
ATOM     21  N   UNL     1       5.945  33.877  35.791  0.00  0.00    +0.000 NA
ATOM     22  C   UNL     1       5.028  34.618  35.217  0.00  0.00    +0.000 A 
ATOM     23  O   UNL     1       4.994  35.902  35.677  0.00  0.00    +0.000 OA
ENDBRANCH  18  19
ENDBRANCH   4  18
TORSDOF 6
ENDMDL
MODEL 9
REMARK VINA RESULT:      -4.6      6.220      8.594
REMARK  Name = 
REMARK  7 active torsions:
REMARK  status: ('A' for Active; 'I' for Inactive)
REMARK    1  A    between atoms: C_1  and  C_2
REMARK    2  A    between atoms: C_2  and  C_3
REMARK    3  A    between atoms: C_3  and  N_4
REMARK    4  A    between atoms: C_3  and  C_11
REMARK    5  A    between atoms: N_4  and  C_5
REMARK    6  A    between atoms: C_14  and  C_15
REMARK    7  A    between atoms: C_15  and  C_16
REMARK                            x       y       z     vdW  Elec       q    Type
REMARK                         _______ _______ _______ _____ _____    ______ ____
ROOT
ATOM      1  C   UNL     1       8.736  41.145  34.462  0.00  0.00    +0.000 A 
ATOM      2  C   UNL     1       8.619  39.812  34.886  0.00  0.00    +0.000 A 
ATOM      3  C   UNL     1       8.064  39.500  36.129  0.00  0.00    +0.000 A 
ATOM      4  C   UNL     1       7.625  40.517  36.987  0.00  0.00    +0.000 A 
ATOM      5  C   UNL     1       7.731  41.849  36.569  0.00  0.00    +0.000 A 
ATOM      6  C   UNL     1       8.257  42.157  35.313  0.00  0.00    +0.000 A 
ENDROOT
BRANCH   1   7
ATOM      7  C   UNL     1       9.357  41.459  33.099  0.00  0.00    +0.000 C 
BRANCH   7   9
ATOM      8  C   UNL     1      11.557  42.677  33.585  0.00  0.00    +0.000 C 
ATOM      9  C   UNL     1      10.894  41.364  33.165  0.00  0.00    +0.000 C 
ENDBRANCH   7   9
BRANCH   7  10
ATOM     10  N   UNL     1       8.813  40.520  32.097  0.00  0.00    +0.000 N 
ATOM     11  H   UNL     1       7.917  40.149  32.412  0.00  0.00    +0.000 HD
BRANCH  10  12
ATOM     12  C   UNL     1       8.696  40.891  30.754  0.00  0.00    +0.000 A 
ATOM     13  C   UNL     1       8.388  42.149  30.270  0.00  0.00    +0.000 A 
ATOM     14  N   UNL     1       8.329  42.485  28.958  0.00  0.00    +0.000 NA
ATOM     15  C   UNL     1       8.632  41.507  28.095  0.00  0.00    +0.000 A 
ATOM     16  N   UNL     1       9.001  40.261  28.419  0.00  0.00    +0.000 NA
ATOM     17  C   UNL     1       9.041  40.000  29.743  0.00  0.00    +0.000 A 
ENDBRANCH  10  12
ENDBRANCH   7  10
ENDBRANCH   1   7
BRANCH   4  18
ATOM     18  C   UNL     1       7.098  40.186  38.364  0.00  0.00    +0.000 C 
BRANCH  18  19
ATOM     19  C   UNL     1       5.992  39.202  38.323  0.00  0.00    +0.000 A 
ATOM     20  N   UNL     1       5.953  37.959  38.755  0.00  0.00    +0.000 NA
ATOM     21  N   UNL     1       4.681  37.492  38.488  0.00  0.00    +0.000 NA
ATOM     22  C   UNL     1       4.044  38.485  37.915  0.00  0.00    +0.000 A 
ATOM     23  O   UNL     1       4.805  39.606  37.759  0.00  0.00    +0.000 OA
ENDBRANCH  18  19
ENDBRANCH   4  18
TORSDOF 6
ENDMDL
MODEL 10
REMARK VINA RESULT:      -4.6      6.856      9.180
REMARK  Name = 
REMARK  7 active torsions:
REMARK  status: ('A' for Active; 'I' for Inactive)
REMARK    1  A    between atoms: C_1  and  C_2
REMARK    2  A    between atoms: C_2  and  C_3
REMARK    3  A    between atoms: C_3  and  N_4
REMARK    4  A    between atoms: C_3  and  C_11
REMARK    5  A    between atoms: N_4  and  C_5
REMARK    6  A    between atoms: C_14  and  C_15
REMARK    7  A    between atoms: C_15  and  C_16
REMARK                            x       y       z     vdW  Elec       q    Type
REMARK                         _______ _______ _______ _____ _____    ______ ____
ROOT
ATOM      1  C   UNL     1       8.429  40.182  34.808  0.00  0.00    +0.000 A 
ATOM      2  C   UNL     1       8.779  38.841  35.031  0.00  0.00    +0.000 A 
ATOM      3  C   UNL     1       8.561  38.238  36.272  0.00  0.00    +0.000 A 
ATOM      4  C   UNL     1       7.999  38.968  37.328  0.00  0.00    +0.000 A 
ATOM      5  C   UNL     1       7.639  40.303  37.112  0.00  0.00    +0.000 A 
ATOM      6  C   UNL     1       7.829  40.895  35.861  0.00  0.00    +0.000 A 
ENDROOT
BRANCH   1   7
ATOM      7  C   UNL     1       8.687  40.820  33.441  0.00  0.00    +0.000 C 
BRANCH   7   9
ATOM      8  C   UNL     1       6.575  40.437  32.043  0.00  0.00    +0.000 C 
ATOM      9  C   UNL     1       7.391  41.431  32.872  0.00  0.00    +0.000 C 
ENDBRANCH   7   9
BRANCH   7  10
ATOM     10  N   UNL     1       9.737  41.849  33.583  0.00  0.00    +0.000 N 
ATOM     11  H   UNL     1      10.546  41.462  34.069  0.00  0.00    +0.000 HD
BRANCH  10  12
ATOM     12  C   UNL     1      10.187  42.573  32.475  0.00  0.00    +0.000 A 
ATOM     13  C   UNL     1      10.258  43.950  32.363  0.00  0.00    +0.000 A 
ATOM     14  N   UNL     1      10.745  44.619  31.290  0.00  0.00    +0.000 NA
ATOM     15  C   UNL     1      11.217  43.855  30.296  0.00  0.00    +0.000 A 
ATOM     16  N   UNL     1      11.264  42.517  30.290  0.00  0.00    +0.000 NA
ATOM     17  C   UNL     1      10.765  41.919  31.392  0.00  0.00    +0.000 A 
ENDBRANCH  10  12
ENDBRANCH   7  10
ENDBRANCH   1   7
BRANCH   4  18
ATOM     18  C   UNL     1       7.836  38.342  38.693  0.00  0.00    +0.000 C 
BRANCH  18  19
ATOM     19  C   UNL     1       6.435  37.946  38.968  0.00  0.00    +0.000 A 
ATOM     20  N   UNL     1       5.794  36.840  38.653  0.00  0.00    +0.000 NA
ATOM     21  N   UNL     1       4.516  36.972  39.159  0.00  0.00    +0.000 NA
ATOM     22  C   UNL     1       4.476  38.146  39.741  0.00  0.00    +0.000 A 
ATOM     23  O   UNL     1       5.648  38.839  39.657  0.00  0.00    +0.000 OA
ENDBRANCH  18  19
ENDBRANCH   4  18
TORSDOF 6
ENDMDL
