MODEL 1
REMARK VINA RESULT:      36.3      0.000      0.000
REMARK  Name = 
REMARK  4 active torsions:
REMARK  status: ('A' for Active; 'I' for Inactive)
REMARK    1  A    between atoms: C_8  and  C_9
REMARK    2  A    between atoms: C_14  and  C_15
REMARK    3  A    between atoms: C_20  and  C_21
REMARK    4  A    between atoms: C_26  and  C_27
REMARK                            x       y       z     vdW  Elec       q    Type
REMARK                         _______ _______ _______ _____ _____    ______ ____
ROOT
ATOM      1  C   UNL     1     -21.155   9.759  22.045  0.00  0.00    +0.000 A 
ATOM      2  C   UNL     1     -20.944   9.449  20.716  0.00  0.00    +0.000 A 
ATOM      3  C   UNL     1     -20.208  10.321  19.883  0.00  0.00    +0.000 A 
ATOM      4  C   UNL     1     -19.670  11.530  20.384  0.00  0.00    +0.000 A 
ATOM      5  N   UNL     1     -18.841  12.305  19.557  0.00  0.00    +0.000 N 
ATOM      6  C   UNL     1     -18.568  13.648  20.100  0.00  0.00    +0.000 C 
ATOM      7  C   UNL     1     -17.932  13.426  21.523  0.00  0.00    +0.000 C 
ATOM      8  C   UNL     1     -17.503  14.689  22.273  0.00  0.00    +0.000 C 
ATOM      9  C   UNL     1     -18.842  15.238  22.658  0.00  0.00    +0.000 C 
ATOM     10  C   UNL     1     -19.745  14.249  22.725  0.00  0.00    +0.000 C 
ATOM     11  C   UNL     1     -19.078  12.926  22.416  0.00  0.00    +0.000 C 
ATOM     12  C   UNL     1     -19.825  11.802  21.749  0.00  0.00    +0.000 A 
ATOM     13  C   UNL     1     -20.628  10.973  22.547  0.00  0.00    +0.000 A 
ATOM     14  H   UNL     1     -19.123  12.302  18.585  0.00  0.00    +0.000 HD
ENDROOT
BRANCH   1  20
ATOM     15  C   UNL     1     -23.838   4.633  25.038  0.00  0.00    +0.000 A 
ATOM     16  C   UNL     1     -23.563   4.367  23.689  0.00  0.00    +0.000 A 
ATOM     17  C   UNL     1     -22.958   5.333  22.877  0.00  0.00    +0.000 A 
ATOM     18  C   UNL     1     -22.636   6.600  23.379  0.00  0.00    +0.000 A 
ATOM     19  N   UNL     1     -21.832   7.455  22.582  0.00  0.00    +0.000 N 
ATOM     20  C   UNL     1     -21.864   8.839  23.024  0.00  0.00    +0.000 C 
ATOM     21  C   UNL     1     -21.370   8.884  24.509  0.00  0.00    +0.000 C 
ATOM     22  C   UNL     1     -21.333  10.273  25.142  0.00  0.00    +0.000 C 
ATOM     23  C   UNL     1     -22.799  10.548  25.276  0.00  0.00    +0.000 C 
ATOM     24  C   UNL     1     -23.466   9.374  25.404  0.00  0.00    +0.000 C 
ATOM     25  C   UNL     1     -22.490   8.213  25.339  0.00  0.00    +0.000 C 
ATOM     26  C   UNL     1     -22.947   6.907  24.721  0.00  0.00    +0.000 A 
ATOM     27  C   UNL     1     -23.562   5.926  25.531  0.00  0.00    +0.000 A 
ATOM     28  H   UNL     1     -22.048   7.359  21.595  0.00  0.00    +0.000 HD
BRANCH  15  36
ATOM     29  C   UNL     1     -27.770   2.350  29.122  0.00  0.00    +0.000 A 
ATOM     30  C   UNL     1     -27.689   1.000  28.804  0.00  0.00    +0.000 A 
ATOM     31  C   UNL     1     -26.879   0.595  27.749  0.00  0.00    +0.000 A 
ATOM     32  C   UNL     1     -26.114   1.532  27.025  0.00  0.00    +0.000 A 
ATOM     33  C   UNL     1     -26.217   2.894  27.325  0.00  0.00    +0.000 A 
ATOM     34  C   UNL     1     -27.061   3.290  28.370  0.00  0.00    +0.000 A 
ATOM     35  N   UNL     1     -25.636   3.861  26.483  0.00  0.00    +0.000 N 
ATOM     36  C   UNL     1     -24.313   3.505  25.958  0.00  0.00    +0.000 C 
ATOM     37  C   UNL     1     -24.292   2.135  25.278  0.00  0.00    +0.000 C 
ATOM     38  C   UNL     1     -22.926   1.461  25.462  0.00  0.00    +0.000 C 
ATOM     39  C   UNL     1     -23.271   0.021  25.511  0.00  0.00    +0.000 C 
ATOM     40  C   UNL     1     -24.521  -0.136  25.957  0.00  0.00    +0.000 C 
ATOM     41  C   UNL     1     -25.329   1.121  25.820  0.00  0.00    +0.000 C 
ATOM     42  H   UNL     1     -25.612   4.773  26.931  0.00  0.00    +0.000 HD
ENDBRANCH  15  36
ENDBRANCH   1  20
BRANCH   6  43
ATOM     43  C   UNL     1     -17.774  14.525  19.135  0.00  0.00    +0.000 A 
ATOM     44  C   UNL     1     -16.836  15.430  19.685  0.00  0.00    +0.000 A 
ATOM     45  C   UNL     1     -16.246  16.433  18.919  0.00  0.00    +0.000 A 
ATOM     46  C   UNL     1     -16.533  16.526  17.568  0.00  0.00    +0.000 A 
ATOM     47  C   UNL     1     -17.386  15.597  16.980  0.00  0.00    +0.000 A 
ATOM     48  C   UNL     1     -18.016  14.571  17.724  0.00  0.00    +0.000 A 
BRANCH  48  49
ATOM     49  C   UNL     1     -18.927  13.607  16.926  0.00  0.00    +0.000 C 
ATOM     50  N   UNL     1     -18.094  12.489  16.447  0.00  0.00    +0.000 N 
ATOM     51  C   UNL     1     -18.744  11.399  15.853  0.00  0.00    +0.000 A 
ATOM     52  C   UNL     1     -17.994  10.471  15.103  0.00  0.00    +0.000 A 
ATOM     53  C   UNL     1     -18.574   9.300  14.609  0.00  0.00    +0.000 A 
ATOM     54  C   UNL     1     -19.915   9.030  14.851  0.00  0.00    +0.000 A 
ATOM     55  C   UNL     1     -20.667   9.925  15.607  0.00  0.00    +0.000 A 
ATOM     56  C   UNL     1     -20.079  11.096  16.131  0.00  0.00    +0.000 A 
ATOM     57  C   UNL     1     -20.885  11.959  17.059  0.00  0.00    +0.000 C 
ATOM     58  C   UNL     1     -21.963  12.781  16.411  0.00  0.00    +0.000 C 
ATOM     59  C   UNL     1     -22.098  13.955  17.037  0.00  0.00    +0.000 C 
ATOM     60  C   UNL     1     -21.131  14.085  18.165  0.00  0.00    +0.000 C 
ATOM     61  C   UNL     1     -20.069  13.033  17.813  0.00  0.00    +0.000 C 
ATOM     62  H   UNL     1     -17.262  12.787  15.950  0.00  0.00    +0.000 HD
ENDBRANCH  48  49
ENDBRANCH   6  43
TORSDOF 4
ENDMDL
