MODEL 1
REMARK VINA RESULT:      12.7      0.000      0.000
REMARK  Name = 
REMARK  4 active torsions:
REMARK  status: ('A' for Active; 'I' for Inactive)
REMARK    1  A    between atoms: C_8  and  C_9
REMARK    2  A    between atoms: C_14  and  C_15
REMARK    3  A    between atoms: C_20  and  C_21
REMARK    4  A    between atoms: C_26  and  C_27
REMARK                            x       y       z     vdW  Elec       q    Type
REMARK                         _______ _______ _______ _____ _____    ______ ____
ROOT
ATOM      1  C   UNL     1     -23.324  11.883  27.372  0.00  0.00    +0.000 A 
ATOM      2  C   UNL     1     -24.167  11.799  28.507  0.00  0.00    +0.000 A 
ATOM      3  C   UNL     1     -24.667  12.933  29.143  0.00  0.00    +0.000 A 
ATOM      4  C   UNL     1     -24.297  14.191  28.699  0.00  0.00    +0.000 A 
ATOM      5  C   UNL     1     -23.412  14.316  27.630  0.00  0.00    +0.000 A 
ATOM      6  C   UNL     1     -22.896  13.185  26.943  0.00  0.00    +0.000 A 
ENDROOT
BRANCH   1  12
ATOM      7  C   UNL     1     -22.900   7.067  22.946  0.00  0.00    +0.000 A 
ATOM      8  C   UNL     1     -23.600   8.174  22.442  0.00  0.00    +0.000 A 
ATOM      9  C   UNL     1     -23.767   9.342  23.204  0.00  0.00    +0.000 A 
ATOM     10  C   UNL     1     -23.261   9.450  24.504  0.00  0.00    +0.000 A 
ATOM     11  N   UNL     1     -23.321  10.695  25.178  0.00  0.00    +0.000 N 
ATOM     12  C   UNL     1     -23.040  10.584  26.614  0.00  0.00    +0.000 C 
ATOM     13  C   UNL     1     -21.569   9.979  26.693  0.00  0.00    +0.000 C 
ATOM     14  C   UNL     1     -20.957   9.820  28.086  0.00  0.00    +0.000 C 
ATOM     15  C   UNL     1     -21.823   8.720  28.618  0.00  0.00    +0.000 C 
ATOM     16  C   UNL     1     -22.266   7.965  27.600  0.00  0.00    +0.000 C 
ATOM     17  C   UNL     1     -21.717   8.504  26.283  0.00  0.00    +0.000 C 
ATOM     18  C   UNL     1     -22.522   8.351  25.019  0.00  0.00    +0.000 A 
ATOM     19  C   UNL     1     -22.388   7.164  24.254  0.00  0.00    +0.000 A 
ATOM     20  H   UNL     1     -24.157  11.222  24.953  0.00  0.00    +0.000 HD
BRANCH   7  28
ATOM     21  C   UNL     1     -20.008   4.663  18.129  0.00  0.00    +0.000 A 
ATOM     22  C   UNL     1     -19.875   3.350  18.559  0.00  0.00    +0.000 A 
ATOM     23  C   UNL     1     -20.324   2.995  19.828  0.00  0.00    +0.000 A 
ATOM     24  C   UNL     1     -20.942   3.940  20.668  0.00  0.00    +0.000 A 
ATOM     25  C   UNL     1     -21.069   5.266  20.253  0.00  0.00    +0.000 A 
ATOM     26  C   UNL     1     -20.574   5.619  18.977  0.00  0.00    +0.000 A 
ATOM     27  N   UNL     1     -21.497   6.265  21.131  0.00  0.00    +0.000 N 
ATOM     28  C   UNL     1     -22.586   5.871  22.034  0.00  0.00    +0.000 C 
ATOM     29  C   UNL     1     -22.285   4.570  22.795  0.00  0.00    +0.000 C 
ATOM     30  C   UNL     1     -23.567   3.758  23.052  0.00  0.00    +0.000 C 
ATOM     31  C   UNL     1     -23.081   2.337  23.079  0.00  0.00    +0.000 C 
ATOM     32  C   UNL     1     -22.032   2.232  22.242  0.00  0.00    +0.000 C 
ATOM     33  C   UNL     1     -21.336   3.583  22.077  0.00  0.00    +0.000 C 
ATOM     34  H   UNL     1     -21.731   7.123  20.638  0.00  0.00    +0.000 HD
ENDBRANCH   7  28
ENDBRANCH   1  12
BRANCH   6  35
ATOM     35  C   UNL     1     -21.936  13.493  25.764  0.00  0.00    +0.000 C 
ATOM     36  N   UNL     1     -21.647  12.241  25.046  0.00  0.00    +0.000 N 
ATOM     37  C   UNL     1     -21.037  12.252  23.795  0.00  0.00    +0.000 A 
ATOM     38  C   UNL     1     -20.494  11.086  23.237  0.00  0.00    +0.000 A 
ATOM     39  C   UNL     1     -19.936  11.072  21.946  0.00  0.00    +0.000 A 
ATOM     40  C   UNL     1     -19.925  12.230  21.158  0.00  0.00    +0.000 A 
ATOM     41  C   UNL     1     -20.472  13.390  21.713  0.00  0.00    +0.000 A 
ATOM     42  C   UNL     1     -21.024  13.410  23.011  0.00  0.00    +0.000 A 
ATOM     43  C   UNL     1     -21.691  14.662  23.487  0.00  0.00    +0.000 C 
ATOM     44  C   UNL     1     -20.784  15.793  23.882  0.00  0.00    +0.000 C 
ATOM     45  C   UNL     1     -21.348  16.518  24.856  0.00  0.00    +0.000 C 
ATOM     46  C   UNL     1     -22.671  15.931  25.263  0.00  0.00    +0.000 C 
ATOM     47  C   UNL     1     -22.570  14.494  24.739  0.00  0.00    +0.000 C 
ATOM     48  H   UNL     1     -21.625  11.387  25.590  0.00  0.00    +0.000 HD
BRANCH  40  49
ATOM     49  C   UNL     1     -19.355  12.271  19.755  0.00  0.00    +0.000 C 
ATOM     50  N   UNL     1     -20.130  11.363  18.905  0.00  0.00    +0.000 N 
ATOM     51  C   UNL     1     -19.680  11.270  17.576  0.00  0.00    +0.000 A 
ATOM     52  C   UNL     1     -20.073  10.174  16.797  0.00  0.00    +0.000 A 
ATOM     53  C   UNL     1     -19.740  10.095  15.443  0.00  0.00    +0.000 A 
ATOM     54  C   UNL     1     -19.023  11.125  14.843  0.00  0.00    +0.000 A 
ATOM     55  C   UNL     1     -18.650  12.236  15.596  0.00  0.00    +0.000 A 
ATOM     56  C   UNL     1     -18.989  12.327  16.958  0.00  0.00    +0.000 A 
ATOM     57  C   UNL     1     -18.671  13.589  17.715  0.00  0.00    +0.000 C 
ATOM     58  C   UNL     1     -17.217  13.797  18.065  0.00  0.00    +0.000 C 
ATOM     59  C   UNL     1     -17.095  14.418  19.246  0.00  0.00    +0.000 C 
ATOM     60  C   UNL     1     -18.439  14.677  19.856  0.00  0.00    +0.000 C 
ATOM     61  C   UNL     1     -19.337  13.680  19.105  0.00  0.00    +0.000 C 
ATOM     62  H   UNL     1     -20.242  10.446  19.331  0.00  0.00    +0.000 HD
ENDBRANCH  40  49
ENDBRANCH   6  35
TORSDOF 4
ENDMDL
MODEL 2
REMARK VINA RESULT:      13.7      1.907      3.712
REMARK  Name = 
REMARK  4 active torsions:
REMARK  status: ('A' for Active; 'I' for Inactive)
REMARK    1  A    between atoms: C_8  and  C_9
REMARK    2  A    between atoms: C_14  and  C_15
REMARK    3  A    between atoms: C_20  and  C_21
REMARK    4  A    between atoms: C_26  and  C_27
REMARK                            x       y       z     vdW  Elec       q    Type
REMARK                         _______ _______ _______ _____ _____    ______ ____
ROOT
ATOM      1  C   UNL     1     -22.283  13.760  25.627  0.00  0.00    +0.000 A 
ATOM      2  C   UNL     1     -23.061  14.274  26.693  0.00  0.00    +0.000 A 
ATOM      3  C   UNL     1     -23.383  15.626  26.790  0.00  0.00    +0.000 A 
ATOM      4  C   UNL     1     -22.893  16.519  25.852  0.00  0.00    +0.000 A 
ATOM      5  C   UNL     1     -22.065  16.064  24.829  0.00  0.00    +0.000 A 
ATOM      6  C   UNL     1     -21.730  14.692  24.684  0.00  0.00    +0.000 A 
ENDROOT
BRANCH   1  12
ATOM      7  C   UNL     1     -22.059   7.573  23.476  0.00  0.00    +0.000 A 
ATOM      8  C   UNL     1     -22.192   8.485  22.418  0.00  0.00    +0.000 A 
ATOM      9  C   UNL     1     -22.209   9.870  22.645  0.00  0.00    +0.000 A 
ATOM     10  C   UNL     1     -22.114  10.405  23.934  0.00  0.00    +0.000 A 
ATOM     11  N   UNL     1     -21.986  11.806  24.104  0.00  0.00    +0.000 N 
ATOM     12  C   UNL     1     -22.202  12.239  25.490  0.00  0.00    +0.000 C 
ATOM     13  C   UNL     1     -21.089  11.471  26.332  0.00  0.00    +0.000 C 
ATOM     14  C   UNL     1     -21.010  11.784  27.827  0.00  0.00    +0.000 C 
ATOM     15  C   UNL     1     -22.294  11.163  28.284  0.00  0.00    +0.000 C 
ATOM     16  C   UNL     1     -22.619  10.150  27.464  0.00  0.00    +0.000 C 
ATOM     17  C   UNL     1     -21.557  10.006  26.379  0.00  0.00    +0.000 C 
ATOM     18  C   UNL     1     -21.947   9.498  25.015  0.00  0.00    +0.000 A 
ATOM     19  C   UNL     1     -21.964   8.099  24.778  0.00  0.00    +0.000 A 
ATOM     20  H   UNL     1     -22.506  12.334  23.413  0.00  0.00    +0.000 HD
BRANCH   7  28
ATOM     21  C   UNL     1     -23.177   1.714  24.807  0.00  0.00    +0.000 A 
ATOM     22  C   UNL     1     -23.080   1.156  23.539  0.00  0.00    +0.000 A 
ATOM     23  C   UNL     1     -22.844   1.982  22.443  0.00  0.00    +0.000 A 
ATOM     24  C   UNL     1     -22.668   3.369  22.606  0.00  0.00    +0.000 A 
ATOM     25  C   UNL     1     -22.776   3.943  23.873  0.00  0.00    +0.000 A 
ATOM     26  C   UNL     1     -23.054   3.096  24.971  0.00  0.00    +0.000 A 
ATOM     27  N   UNL     1     -22.802   5.330  24.044  0.00  0.00    +0.000 N 
ATOM     28  C   UNL     1     -21.871   6.075  23.186  0.00  0.00    +0.000 C 
ATOM     29  C   UNL     1     -22.008   5.707  21.700  0.00  0.00    +0.000 C 
ATOM     30  C   UNL     1     -20.655   5.794  20.972  0.00  0.00    +0.000 C 
ATOM     31  C   UNL     1     -20.780   4.769  19.881  0.00  0.00    +0.000 C 
ATOM     32  C   UNL     1     -21.566   3.772  20.324  0.00  0.00    +0.000 C 
ATOM     33  C   UNL     1     -22.514   4.274  21.413  0.00  0.00    +0.000 C 
ATOM     34  H   UNL     1     -22.680   5.590  25.018  0.00  0.00    +0.000 HD
ENDBRANCH   7  28
ENDBRANCH   1  12
BRANCH   6  35
ATOM     35  C   UNL     1     -20.812  14.346  23.483  0.00  0.00    +0.000 C 
ATOM     36  N   UNL     1     -21.649  13.909  22.354  0.00  0.00    +0.000 N 
ATOM     37  C   UNL     1     -21.126  13.795  21.069  0.00  0.00    +0.000 A 
ATOM     38  C   UNL     1     -21.815  13.110  20.058  0.00  0.00    +0.000 A 
ATOM     39  C   UNL     1     -21.326  13.047  18.741  0.00  0.00    +0.000 A 
ATOM     40  C   UNL     1     -20.135  13.692  18.387  0.00  0.00    +0.000 A 
ATOM     41  C   UNL     1     -19.452  14.380  19.394  0.00  0.00    +0.000 A 
ATOM     42  C   UNL     1     -19.934  14.437  20.718  0.00  0.00    +0.000 A 
ATOM     43  C   UNL     1     -19.205  15.288  21.710  0.00  0.00    +0.000 C 
ATOM     44  C   UNL     1     -17.906  14.741  22.232  0.00  0.00    +0.000 C 
ATOM     45  C   UNL     1     -17.703  15.156  23.489  0.00  0.00    +0.000 C 
ATOM     46  C   UNL     1     -18.860  15.985  23.973  0.00  0.00    +0.000 C 
ATOM     47  C   UNL     1     -19.980  15.585  23.006  0.00  0.00    +0.000 C 
ATOM     48  H   UNL     1     -22.508  13.418  22.574  0.00  0.00    +0.000 HD
BRANCH  40  49
ATOM     49  C   UNL     1     -19.569  13.675  16.981  0.00  0.00    +0.000 C 
ATOM     50  N   UNL     1     -18.729  14.861  16.796  0.00  0.00    +0.000 N 
ATOM     51  C   UNL     1     -18.170  14.995  15.514  0.00  0.00    +0.000 A 
ATOM     52  C   UNL     1     -17.692  16.247  15.104  0.00  0.00    +0.000 A 
ATOM     53  C   UNL     1     -17.032  16.402  13.882  0.00  0.00    +0.000 A 
ATOM     54  C   UNL     1     -16.823  15.300  13.061  0.00  0.00    +0.000 A 
ATOM     55  C   UNL     1     -17.266  14.043  13.466  0.00  0.00    +0.000 A 
ATOM     56  C   UNL     1     -17.924  13.876  14.698  0.00  0.00    +0.000 A 
ATOM     57  C   UNL     1     -18.288  12.490  15.158  0.00  0.00    +0.000 C 
ATOM     58  C   UNL     1     -19.457  11.848  14.450  0.00  0.00    +0.000 C 
ATOM     59  C   UNL     1     -20.157  11.074  15.290  0.00  0.00    +0.000 C 
ATOM     60  C   UNL     1     -19.575  11.117  16.669  0.00  0.00    +0.000 C 
ATOM     61  C   UNL     1     -18.742  12.410  16.632  0.00  0.00    +0.000 C 
ATOM     62  H   UNL     1     -19.201  15.712  17.094  0.00  0.00    +0.000 HD
ENDBRANCH  40  49
ENDBRANCH   6  35
TORSDOF 4
ENDMDL
MODEL 3
REMARK VINA RESULT:      14.1      0.672      7.444
REMARK  Name = 
REMARK  4 active torsions:
REMARK  status: ('A' for Active; 'I' for Inactive)
REMARK    1  A    between atoms: C_8  and  C_9
REMARK    2  A    between atoms: C_14  and  C_15
REMARK    3  A    between atoms: C_20  and  C_21
REMARK    4  A    between atoms: C_26  and  C_27
REMARK                            x       y       z     vdW  Elec       q    Type
REMARK                         _______ _______ _______ _____ _____    ______ ____
ROOT
ATOM      1  C   UNL     1     -22.944  13.322  26.539  0.00  0.00    +0.000 A 
ATOM      2  C   UNL     1     -23.224  14.565  27.159  0.00  0.00    +0.000 A 
ATOM      3  C   UNL     1     -23.737  14.647  28.452  0.00  0.00    +0.000 A 
ATOM      4  C   UNL     1     -24.040  13.489  29.148  0.00  0.00    +0.000 A 
ATOM      5  C   UNL     1     -23.846  12.248  28.546  0.00  0.00    +0.000 A 
ATOM      6  C   UNL     1     -23.306  12.121  27.238  0.00  0.00    +0.000 A 
ENDROOT
BRANCH   1  12
ATOM      7  C   UNL     1     -20.008  11.927  20.847  0.00  0.00    +0.000 A 
ATOM      8  C   UNL     1     -20.657  10.805  21.385  0.00  0.00    +0.000 A 
ATOM      9  C   UNL     1     -21.396  10.888  22.576  0.00  0.00    +0.000 A 
ATOM     10  C   UNL     1     -21.502  12.085  23.292  0.00  0.00    +0.000 A 
ATOM     11  N   UNL     1     -22.376  12.160  24.405  0.00  0.00    +0.000 N 
ATOM     12  C   UNL     1     -22.158  13.357  25.227  0.00  0.00    +0.000 C 
ATOM     13  C   UNL     1     -22.410  14.579  24.237  0.00  0.00    +0.000 C 
ATOM     14  C   UNL     1     -22.332  15.984  24.835  0.00  0.00    +0.000 C 
ATOM     15  C   UNL     1     -20.864  16.056  25.123  0.00  0.00    +0.000 C 
ATOM     16  C   UNL     1     -20.199  15.270  24.261  0.00  0.00    +0.000 C 
ATOM     17  C   UNL     1     -21.185  14.604  23.307  0.00  0.00    +0.000 C 
ATOM     18  C   UNL     1     -20.877  13.239  22.748  0.00  0.00    +0.000 A 
ATOM     19  C   UNL     1     -20.107  13.137  21.560  0.00  0.00    +0.000 A 
ATOM     20  H   UNL     1     -22.420  11.293  24.928  0.00  0.00    +0.000 HD
BRANCH   7  28
ATOM     21  C   UNL     1     -19.759   9.603  15.201  0.00  0.00    +0.000 A 
ATOM     22  C   UNL     1     -19.211  10.681  14.520  0.00  0.00    +0.000 A 
ATOM     23  C   UNL     1     -18.955  11.866  15.206  0.00  0.00    +0.000 A 
ATOM     24  C   UNL     1     -19.211  11.974  16.585  0.00  0.00    +0.000 A 
ATOM     25  C   UNL     1     -19.774  10.902  17.277  0.00  0.00    +0.000 A 
ATOM     26  C   UNL     1     -20.064   9.719  16.560  0.00  0.00    +0.000 A 
ATOM     27  N   UNL     1     -20.220  11.039  18.595  0.00  0.00    +0.000 N 
ATOM     28  C   UNL     1     -19.353  11.850  19.459  0.00  0.00    +0.000 C 
ATOM     29  C   UNL     1     -19.021  13.222  18.851  0.00  0.00    +0.000 C 
ATOM     30  C   UNL     1     -17.611  13.689  19.250  0.00  0.00    +0.000 C 
ATOM     31  C   UNL     1     -17.183  14.540  18.088  0.00  0.00    +0.000 C 
ATOM     32  C   UNL     1     -17.748  14.046  16.971  0.00  0.00    +0.000 C 
ATOM     33  C   UNL     1     -19.030  13.284  17.305  0.00  0.00    +0.000 C 
ATOM     34  H   UNL     1     -20.412  10.138  19.022  0.00  0.00    +0.000 HD
ENDBRANCH   7  28
ENDBRANCH   1  12
BRANCH   6  35
ATOM     35  C   UNL     1     -23.137  10.670  26.718  0.00  0.00    +0.000 C 
ATOM     36  N   UNL     1     -23.672  10.590  25.348  0.00  0.00    +0.000 N 
ATOM     37  C   UNL     1     -23.414   9.490  24.536  0.00  0.00    +0.000 A 
ATOM     38  C   UNL     1     -24.145   9.262  23.361  0.00  0.00    +0.000 A 
ATOM     39  C   UNL     1     -23.847   8.192  22.499  0.00  0.00    +0.000 A 
ATOM     40  C   UNL     1     -22.784   7.323  22.777  0.00  0.00    +0.000 A 
ATOM     41  C   UNL     1     -22.052   7.554  23.945  0.00  0.00    +0.000 A 
ATOM     42  C   UNL     1     -22.355   8.621  24.817  0.00  0.00    +0.000 A 
ATOM     43  C   UNL     1     -21.453   8.869  25.985  0.00  0.00    +0.000 C 
ATOM     44  C   UNL     1     -21.584   7.918  27.142  0.00  0.00    +0.000 C 
ATOM     45  C   UNL     1     -21.307   8.548  28.291  0.00  0.00    +0.000 C 
ATOM     46  C   UNL     1     -21.010  10.002  28.045  0.00  0.00    +0.000 C 
ATOM     47  C   UNL     1     -21.631  10.238  26.665  0.00  0.00    +0.000 C 
ATOM     48  H   UNL     1     -24.457  11.190  25.120  0.00  0.00    +0.000 HD
BRANCH  40  49
ATOM     49  C   UNL     1     -22.404   6.164  21.876  0.00  0.00    +0.000 C 
ATOM     50  N   UNL     1     -21.255   6.561  21.058  0.00  0.00    +0.000 N 
ATOM     51  C   UNL     1     -20.820   5.590  20.140  0.00  0.00    +0.000 A 
ATOM     52  C   UNL     1     -20.015   5.980  19.062  0.00  0.00    +0.000 A 
ATOM     53  C   UNL     1     -19.472   5.035  18.188  0.00  0.00    +0.000 A 
ATOM     54  C   UNL     1     -19.711   3.681  18.394  0.00  0.00    +0.000 A 
ATOM     55  C   UNL     1     -20.486   3.273  19.478  0.00  0.00    +0.000 A 
ATOM     56  C   UNL     1     -21.029   4.218  20.368  0.00  0.00    +0.000 A 
ATOM     57  C   UNL     1     -21.764   3.740  21.591  0.00  0.00    +0.000 C 
ATOM     58  C   UNL     1     -23.144   3.176  21.351  0.00  0.00    +0.000 C 
ATOM     59  C   UNL     1     -23.961   3.463  22.373  0.00  0.00    +0.000 C 
ATOM     60  C   UNL     1     -23.254   4.278  23.412  0.00  0.00    +0.000 C 
ATOM     61  C   UNL     1     -22.063   4.849  22.624  0.00  0.00    +0.000 C 
ATOM     62  H   UNL     1     -21.398   7.465  20.613  0.00  0.00    +0.000 HD
ENDBRANCH  40  49
ENDBRANCH   6  35
TORSDOF 4
ENDMDL
MODEL 4
REMARK VINA RESULT:      15.2      1.616      8.033
REMARK  Name = 
REMARK  4 active torsions:
REMARK  status: ('A' for Active; 'I' for Inactive)
REMARK    1  A    between atoms: C_8  and  C_9
REMARK    2  A    between atoms: C_14  and  C_15
REMARK    3  A    between atoms: C_20  and  C_21
REMARK    4  A    between atoms: C_26  and  C_27
REMARK                            x       y       z     vdW  Elec       q    Type
REMARK                         _______ _______ _______ _____ _____    ______ ____
ROOT
ATOM      1  C   UNL     1     -22.021  14.332  25.547  0.00  0.00    +0.000 A 
ATOM      2  C   UNL     1     -21.763  15.559  26.207  0.00  0.00    +0.000 A 
ATOM      3  C   UNL     1     -22.062  15.750  27.555  0.00  0.00    +0.000 A 
ATOM      4  C   UNL     1     -22.679  14.741  28.273  0.00  0.00    +0.000 A 
ATOM      5  C   UNL     1     -23.015  13.546  27.642  0.00  0.00    +0.000 A 
ATOM      6  C   UNL     1     -22.709  13.304  26.276  0.00  0.00    +0.000 A 
ENDROOT
BRANCH   1  12
ATOM      7  C   UNL     1     -20.905  12.870  19.255  0.00  0.00    +0.000 A 
ATOM      8  C   UNL     1     -22.175  12.441  19.670  0.00  0.00    +0.000 A 
ATOM      9  C   UNL     1     -22.646  12.696  20.968  0.00  0.00    +0.000 A 
ATOM     10  C   UNL     1     -21.865  13.370  21.913  0.00  0.00    +0.000 A 
ATOM     11  N   UNL     1     -22.433  13.736  23.159  0.00  0.00    +0.000 N 
ATOM     12  C   UNL     1     -21.430  14.154  24.147  0.00  0.00    +0.000 C 
ATOM     13  C   UNL     1     -20.700  15.402  23.479  0.00  0.00    +0.000 C 
ATOM     14  C   UNL     1     -19.640  16.116  24.318  0.00  0.00    +0.000 C 
ATOM     15  C   UNL     1     -18.581  15.056  24.343  0.00  0.00    +0.000 C 
ATOM     16  C   UNL     1     -18.677  14.301  23.237  0.00  0.00    +0.000 C 
ATOM     17  C   UNL     1     -19.821  14.808  22.365  0.00  0.00    +0.000 C 
ATOM     18  C   UNL     1     -20.588  13.839  21.502  0.00  0.00    +0.000 A 
ATOM     19  C   UNL     1     -20.110  13.548  20.199  0.00  0.00    +0.000 A 
ATOM     20  H   UNL     1     -23.100  13.055  23.500  0.00  0.00    +0.000 HD
BRANCH   7  28
ATOM     21  C   UNL     1     -17.855  14.922  14.374  0.00  0.00    +0.000 A 
ATOM     22  C   UNL     1     -17.582  13.719  13.737  0.00  0.00    +0.000 A 
ATOM     23  C   UNL     1     -17.973  12.524  14.334  0.00  0.00    +0.000 A 
ATOM     24  C   UNL     1     -18.672  12.518  15.555  0.00  0.00    +0.000 A 
ATOM     25  C   UNL     1     -18.940  13.720  16.211  0.00  0.00    +0.000 A 
ATOM     26  C   UNL     1     -18.503  14.923  15.612  0.00  0.00    +0.000 A 
ATOM     27  N   UNL     1     -19.455  13.741  17.511  0.00  0.00    +0.000 N 
ATOM     28  C   UNL     1     -20.484  12.730  17.784  0.00  0.00    +0.000 C 
ATOM     29  C   UNL     1     -20.041  11.310  17.397  0.00  0.00    +0.000 C 
ATOM     30  C   UNL     1     -21.228  10.462  16.911  0.00  0.00    +0.000 C 
ATOM     31  C   UNL     1     -20.599   9.503  15.940  0.00  0.00    +0.000 C 
ATOM     32  C   UNL     1     -19.558  10.119  15.352  0.00  0.00    +0.000 C 
ATOM     33  C   UNL     1     -19.006  11.225  16.251  0.00  0.00    +0.000 C 
ATOM     34  H   UNL     1     -19.783  14.667  17.770  0.00  0.00    +0.000 HD
ENDBRANCH   7  28
ENDBRANCH   1  12
BRANCH   6  35
ATOM     35  C   UNL     1     -23.134  11.917  25.726  0.00  0.00    +0.000 C 
ATOM     36  N   UNL     1     -22.152  11.483  24.720  0.00  0.00    +0.000 N 
ATOM     37  C   UNL     1     -22.126  10.170  24.256  0.00  0.00    +0.000 A 
ATOM     38  C   UNL     1     -21.409   9.816  23.105  0.00  0.00    +0.000 A 
ATOM     39  C   UNL     1     -21.321   8.483  22.667  0.00  0.00    +0.000 A 
ATOM     40  C   UNL     1     -21.935   7.450  23.388  0.00  0.00    +0.000 A 
ATOM     41  C   UNL     1     -22.644   7.804  24.539  0.00  0.00    +0.000 A 
ATOM     42  C   UNL     1     -22.742   9.142  24.976  0.00  0.00    +0.000 A 
ATOM     43  C   UNL     1     -23.422   9.422  26.278  0.00  0.00    +0.000 C 
ATOM     44  C   UNL     1     -24.923   9.337  26.279  0.00  0.00    +0.000 C 
ATOM     45  C   UNL     1     -25.433  10.198  27.169  0.00  0.00    +0.000 C 
ATOM     46  C   UNL     1     -24.342  10.995  27.830  0.00  0.00    +0.000 C 
ATOM     47  C   UNL     1     -23.173  10.828  26.852  0.00  0.00    +0.000 C 
ATOM     48  H   UNL     1     -21.705  12.203  24.164  0.00  0.00    +0.000 HD
BRANCH  40  49
ATOM     49  C   UNL     1     -21.859   5.994  22.976  0.00  0.00    +0.000 C 
ATOM     50  N   UNL     1     -22.634   5.194  23.929  0.00  0.00    +0.000 N 
ATOM     51  C   UNL     1     -22.616   3.809  23.690  0.00  0.00    +0.000 A 
ATOM     52  C   UNL     1     -22.973   2.933  24.723  0.00  0.00    +0.000 A 
ATOM     53  C   UNL     1     -23.074   1.557  24.499  0.00  0.00    +0.000 A 
ATOM     54  C   UNL     1     -22.836   1.041  23.230  0.00  0.00    +0.000 A 
ATOM     55  C   UNL     1     -22.508   1.902  22.185  0.00  0.00    +0.000 A 
ATOM     56  C   UNL     1     -22.414   3.289  22.400  0.00  0.00    +0.000 A 
ATOM     57  C   UNL     1     -22.170   4.201  21.227  0.00  0.00    +0.000 C 
ATOM     58  C   UNL     1     -20.767   4.195  20.670  0.00  0.00    +0.000 C 
ATOM     59  C   UNL     1     -20.425   5.411  20.225  0.00  0.00    +0.000 C 
ATOM     60  C   UNL     1     -21.530   6.395  20.453  0.00  0.00    +0.000 C 
ATOM     61  C   UNL     1     -22.367   5.701  21.540  0.00  0.00    +0.000 C 
ATOM     62  H   UNL     1     -22.395   5.415  24.894  0.00  0.00    +0.000 HD
ENDBRANCH  40  49
ENDBRANCH   6  35
TORSDOF 4
ENDMDL
MODEL 5
REMARK VINA RESULT:      15.5      1.350      8.099
REMARK  Name = 
REMARK  4 active torsions:
REMARK  status: ('A' for Active; 'I' for Inactive)
REMARK    1  A    between atoms: C_8  and  C_9
REMARK    2  A    between atoms: C_14  and  C_15
REMARK    3  A    between atoms: C_20  and  C_21
REMARK    4  A    between atoms: C_26  and  C_27
REMARK                            x       y       z     vdW  Elec       q    Type
REMARK                         _______ _______ _______ _____ _____    ______ ____
ROOT
ATOM      1  C   UNL     1     -22.486  13.344  25.742  0.00  0.00    +0.000 A 
ATOM      2  C   UNL     1     -22.609  14.729  26.015  0.00  0.00    +0.000 A 
ATOM      3  C   UNL     1     -23.115  15.202  27.224  0.00  0.00    +0.000 A 
ATOM      4  C   UNL     1     -23.567  14.307  28.179  0.00  0.00    +0.000 A 
ATOM      5  C   UNL     1     -23.529  12.939  27.919  0.00  0.00    +0.000 A 
ATOM      6  C   UNL     1     -23.002  12.416  26.709  0.00  0.00    +0.000 A 
ENDROOT
BRANCH   1  12
ATOM      7  C   UNL     1     -20.225  12.493  19.649  0.00  0.00    +0.000 A 
ATOM      8  C   UNL     1     -21.390  13.275  19.665  0.00  0.00    +0.000 A 
ATOM      9  C   UNL     1     -22.018  13.626  20.871  0.00  0.00    +0.000 A 
ATOM     10  C   UNL     1     -21.524  13.199  22.108  0.00  0.00    +0.000 A 
ATOM     11  N   UNL     1     -22.100  13.699  23.303  0.00  0.00    +0.000 N 
ATOM     12  C   UNL     1     -21.694  12.945  24.495  0.00  0.00    +0.000 C 
ATOM     13  C   UNL     1     -20.108  13.083  24.540  0.00  0.00    +0.000 C 
ATOM     14  C   UNL     1     -19.391  12.457  25.737  0.00  0.00    +0.000 C 
ATOM     15  C   UNL     1     -19.613  11.007  25.435  0.00  0.00    +0.000 C 
ATOM     16  C   UNL     1     -19.733  10.838  24.108  0.00  0.00    +0.000 C 
ATOM     17  C   UNL     1     -19.591  12.184  23.404  0.00  0.00    +0.000 C 
ATOM     18  C   UNL     1     -20.328  12.433  22.113  0.00  0.00    +0.000 A 
ATOM     19  C   UNL     1     -19.720  12.056  20.888  0.00  0.00    +0.000 A 
ATOM     20  H   UNL     1     -23.098  13.852  23.222  0.00  0.00    +0.000 HD
BRANCH   7  28
ATOM     21  C   UNL     1     -19.144   9.177  14.631  0.00  0.00    +0.000 A 
ATOM     22  C   UNL     1     -18.749  10.182  13.758  0.00  0.00    +0.000 A 
ATOM     23  C   UNL     1     -18.760  11.506  14.188  0.00  0.00    +0.000 A 
ATOM     24  C   UNL     1     -19.134  11.838  15.503  0.00  0.00    +0.000 A 
ATOM     25  C   UNL     1     -19.546  10.838  16.385  0.00  0.00    +0.000 A 
ATOM     26  C   UNL     1     -19.565   9.503  15.922  0.00  0.00    +0.000 A 
ATOM     27  N   UNL     1     -20.106  11.149  17.627  0.00  0.00    +0.000 N 
ATOM     28  C   UNL     1     -19.465  12.266  18.332  0.00  0.00    +0.000 C 
ATOM     29  C   UNL     1     -19.340  13.526  17.461  0.00  0.00    +0.000 C 
ATOM     30  C   UNL     1     -18.070  14.324  17.804  0.00  0.00    +0.000 C 
ATOM     31  C   UNL     1     -17.716  14.991  16.505  0.00  0.00    +0.000 C 
ATOM     32  C   UNL     1     -18.098  14.185  15.497  0.00  0.00    +0.000 C 
ATOM     33  C   UNL     1     -19.244  13.275  15.938  0.00  0.00    +0.000 C 
ATOM     34  H   UNL     1     -20.165  10.331  18.228  0.00  0.00    +0.000 HD
ENDBRANCH   7  28
ENDBRANCH   1  12
BRANCH   6  35
ATOM     35  C   UNL     1     -23.016  10.870  26.580  0.00  0.00    +0.000 C 
ATOM     36  N   UNL     1     -23.233  10.512  25.169  0.00  0.00    +0.000 N 
ATOM     37  C   UNL     1     -23.025   9.213  24.714  0.00  0.00    +0.000 A 
ATOM     38  C   UNL     1     -23.502   8.791  23.465  0.00  0.00    +0.000 A 
ATOM     39  C   UNL     1     -23.239   7.502  22.968  0.00  0.00    +0.000 A 
ATOM     40  C   UNL     1     -22.464   6.596  23.703  0.00  0.00    +0.000 A 
ATOM     41  C   UNL     1     -21.985   7.019  24.946  0.00  0.00    +0.000 A 
ATOM     42  C   UNL     1     -22.255   8.308  25.451  0.00  0.00    +0.000 A 
ATOM     43  C   UNL     1     -21.610   8.723  26.736  0.00  0.00    +0.000 C 
ATOM     44  C   UNL     1     -22.188   8.135  27.993  0.00  0.00    +0.000 C 
ATOM     45  C   UNL     1     -22.056   8.998  29.009  0.00  0.00    +0.000 C 
ATOM     46  C   UNL     1     -21.424  10.281  28.543  0.00  0.00    +0.000 C 
ATOM     47  C   UNL     1     -21.656  10.233  27.029  0.00  0.00    +0.000 C 
ATOM     48  H   UNL     1     -23.808  11.135  24.614  0.00  0.00    +0.000 HD
BRANCH  40  49
ATOM     49  C   UNL     1     -22.133   5.201  23.212  0.00  0.00    +0.000 C 
ATOM     50  N   UNL     1     -22.904   4.230  23.994  0.00  0.00    +0.000 N 
ATOM     51  C   UNL     1     -22.661   2.884  23.670  0.00  0.00    +0.000 A 
ATOM     52  C   UNL     1     -23.021   1.886  24.583  0.00  0.00    +0.000 A 
ATOM     53  C   UNL     1     -22.898   0.532  24.259  0.00  0.00    +0.000 A 
ATOM     54  C   UNL     1     -22.429   0.159  23.004  0.00  0.00    +0.000 A 
ATOM     55  C   UNL     1     -22.094   1.139  22.073  0.00  0.00    +0.000 A 
ATOM     56  C   UNL     1     -22.223   2.504  22.389  0.00  0.00    +0.000 A 
ATOM     57  C   UNL     1     -21.961   3.535  21.324  0.00  0.00    +0.000 C 
ATOM     58  C   UNL     1     -20.511   3.758  20.967  0.00  0.00    +0.000 C 
ATOM     59  C   UNL     1     -20.288   5.041  20.654  0.00  0.00    +0.000 C 
ATOM     60  C   UNL     1     -21.541   5.851  20.790  0.00  0.00    +0.000 C 
ATOM     61  C   UNL     1     -22.405   4.965  21.703  0.00  0.00    +0.000 C 
ATOM     62  H   UNL     1     -22.825   4.399  24.994  0.00  0.00    +0.000 HD
ENDBRANCH  40  49
ENDBRANCH   6  35
TORSDOF 4
ENDMDL
MODEL 6
REMARK VINA RESULT:      15.7      1.684      8.024
REMARK  Name = 
REMARK  4 active torsions:
REMARK  status: ('A' for Active; 'I' for Inactive)
REMARK    1  A    between atoms: C_8  and  C_9
REMARK    2  A    between atoms: C_14  and  C_15
REMARK    3  A    between atoms: C_20  and  C_21
REMARK    4  A    between atoms: C_26  and  C_27
REMARK                            x       y       z     vdW  Elec       q    Type
REMARK                         _______ _______ _______ _____ _____    ______ ____
ROOT
ATOM      1  C   UNL     1     -21.967  14.179  25.837  0.00  0.00    +0.000 A 
ATOM      2  C   UNL     1     -21.676  15.238  26.732  0.00  0.00    +0.000 A 
ATOM      3  C   UNL     1     -21.988  15.167  28.088  0.00  0.00    +0.000 A 
ATOM      4  C   UNL     1     -22.651  14.058  28.585  0.00  0.00    +0.000 A 
ATOM      5  C   UNL     1     -23.018  13.026  27.723  0.00  0.00    +0.000 A 
ATOM      6  C   UNL     1     -22.700  13.051  26.339  0.00  0.00    +0.000 A 
ENDROOT
BRANCH   1  12
ATOM      7  C   UNL     1     -20.640  13.633  19.441  0.00  0.00    +0.000 A 
ATOM      8  C   UNL     1     -21.810  12.940  19.789  0.00  0.00    +0.000 A 
ATOM      9  C   UNL     1     -22.311  12.963  21.100  0.00  0.00    +0.000 A 
ATOM     10  C   UNL     1     -21.659  13.661  22.123  0.00  0.00    +0.000 A 
ATOM     11  N   UNL     1     -22.277  13.781  23.393  0.00  0.00    +0.000 N 
ATOM     12  C   UNL     1     -21.361  14.263  24.434  0.00  0.00    +0.000 C 
ATOM     13  C   UNL     1     -20.872  15.687  23.915  0.00  0.00    +0.000 C 
ATOM     14  C   UNL     1     -19.953  16.485  24.841  0.00  0.00    +0.000 C 
ATOM     15  C   UNL     1     -18.720  15.637  24.766  0.00  0.00    +0.000 C 
ATOM     16  C   UNL     1     -18.684  15.001  23.585  0.00  0.00    +0.000 C 
ATOM     17  C   UNL     1     -19.906  15.385  22.756  0.00  0.00    +0.000 C 
ATOM     18  C   UNL     1     -20.490  14.394  21.783  0.00  0.00    +0.000 A 
ATOM     19  C   UNL     1     -19.975  14.336  20.463  0.00  0.00    +0.000 A 
ATOM     20  H   UNL     1     -22.809  12.958  23.650  0.00  0.00    +0.000 HD
BRANCH   7  28
ATOM     21  C   UNL     1     -17.684  16.526  14.943  0.00  0.00    +0.000 A 
ATOM     22  C   UNL     1     -17.349  15.445  14.140  0.00  0.00    +0.000 A 
ATOM     23  C   UNL     1     -17.682  14.157  14.551  0.00  0.00    +0.000 A 
ATOM     24  C   UNL     1     -18.382  13.938  15.751  0.00  0.00    +0.000 A 
ATOM     25  C   UNL     1     -18.712  15.016  16.574  0.00  0.00    +0.000 A 
ATOM     26  C   UNL     1     -18.334  16.314  16.161  0.00  0.00    +0.000 A 
ATOM     27  N   UNL     1     -19.230  14.820  17.857  0.00  0.00    +0.000 N 
ATOM     28  C   UNL     1     -20.208  13.731  17.969  0.00  0.00    +0.000 C 
ATOM     29  C   UNL     1     -19.694  12.407  17.383  0.00  0.00    +0.000 C 
ATOM     30  C   UNL     1     -20.836  11.581  16.766  0.00  0.00    +0.000 C 
ATOM     31  C   UNL     1     -20.157  10.808  15.672  0.00  0.00    +0.000 C 
ATOM     32  C   UNL     1     -19.147  11.554  15.190  0.00  0.00    +0.000 C 
ATOM     33  C   UNL     1     -18.653  12.542  16.246  0.00  0.00    +0.000 C 
ATOM     34  H   UNL     1     -19.605  15.681  18.246  0.00  0.00    +0.000 HD
ENDBRANCH   7  28
ENDBRANCH   1  12
BRANCH   6  35
ATOM     35  C   UNL     1     -23.164  11.819  25.520  0.00  0.00    +0.000 C 
ATOM     36  N   UNL     1     -22.191  11.570  24.443  0.00  0.00    +0.000 N 
ATOM     37  C   UNL     1     -22.203  10.379  23.722  0.00  0.00    +0.000 A 
ATOM     38  C   UNL     1     -21.493  10.247  22.520  0.00  0.00    +0.000 A 
ATOM     39  C   UNL     1     -21.443   9.028  21.819  0.00  0.00    +0.000 A 
ATOM     40  C   UNL     1     -22.090   7.890  22.317  0.00  0.00    +0.000 A 
ATOM     41  C   UNL     1     -22.792   8.021  23.517  0.00  0.00    +0.000 A 
ATOM     42  C   UNL     1     -22.852   9.245  24.218  0.00  0.00    +0.000 A 
ATOM     43  C   UNL     1     -23.529   9.274  25.552  0.00  0.00    +0.000 C 
ATOM     44  C   UNL     1     -25.031   9.235  25.540  0.00  0.00    +0.000 C 
ATOM     45  C   UNL     1     -25.518   9.912  26.588  0.00  0.00    +0.000 C 
ATOM     46  C   UNL     1     -24.406  10.524  27.394  0.00  0.00    +0.000 C 
ATOM     47  C   UNL     1     -23.239  10.525  26.400  0.00  0.00    +0.000 C 
ATOM     48  H   UNL     1     -21.722  12.375  24.045  0.00  0.00    +0.000 HD
BRANCH  40  49
ATOM     49  C   UNL     1     -22.056   6.546  21.616  0.00  0.00    +0.000 C 
ATOM     50  N   UNL     1     -20.846   6.475  20.792  0.00  0.00    +0.000 N 
ATOM     51  C   UNL     1     -20.707   5.290  20.048  0.00  0.00    +0.000 A 
ATOM     52  C   UNL     1     -19.832   5.269  18.955  0.00  0.00    +0.000 A 
ATOM     53  C   UNL     1     -19.581   4.086  18.254  0.00  0.00    +0.000 A 
ATOM     54  C   UNL     1     -20.191   2.901  18.652  0.00  0.00    +0.000 A 
ATOM     55  C   UNL     1     -21.042   2.899  19.755  0.00  0.00    +0.000 A 
ATOM     56  C   UNL     1     -21.293   4.084  20.471  0.00  0.00    +0.000 A 
ATOM     57  C   UNL     1     -22.126   4.026  21.724  0.00  0.00    +0.000 C 
ATOM     58  C   UNL     1     -23.609   3.839  21.518  0.00  0.00    +0.000 C 
ATOM     59  C   UNL     1     -24.307   4.496  22.454  0.00  0.00    +0.000 C 
ATOM     60  C   UNL     1     -23.393   5.233  23.384  0.00  0.00    +0.000 C 
ATOM     61  C   UNL     1     -22.094   5.320  22.566  0.00  0.00    +0.000 C 
ATOM     62  H   UNL     1     -20.732   7.302  20.211  0.00  0.00    +0.000 HD
ENDBRANCH  40  49
ENDBRANCH   6  35
TORSDOF 4
ENDMDL
