MODEL 1
REMARK VINA RESULT:      -6.4      0.000      0.000
REMARK  Name = 
REMARK  7 active torsions:
REMARK  status: ('A' for Active; 'I' for Inactive)
REMARK    1  A    between atoms: C_2  and  C_3
REMARK    2  A    between atoms: C_3  and  C_5
REMARK    3  A    between atoms: C_5  and  C_7
REMARK    4  A    between atoms: C_5  and  N_21
REMARK    5  A    between atoms: C_7  and  C_8
REMARK    6  A    between atoms: C_11  and  C_12
REMARK    7  A    between atoms: N_21  and  C_22
REMARK                            x       y       z     vdW  Elec       q    Type
REMARK                         _______ _______ _______ _____ _____    ______ ____
ROOT
ATOM      1  C   UNL     1      11.114  41.141  32.292  0.00  0.00    +0.000 C 
ENDROOT
BRANCH   1   2
ATOM      2  C   UNL     1      10.068  40.957  33.367  0.00  0.00    +0.000 A 
ATOM      3  C   UNL     1       9.453  42.069  33.950  0.00  0.00    +0.000 A 
ATOM      4  C   UNL     1       8.503  41.907  34.956  0.00  0.00    +0.000 A 
ATOM      5  C   UNL     1       8.124  40.632  35.392  0.00  0.00    +0.000 A 
ATOM      6  C   UNL     1       8.697  39.517  34.765  0.00  0.00    +0.000 A 
ATOM      7  C   UNL     1       9.665  39.678  33.768  0.00  0.00    +0.000 A 
BRANCH   5   8
ATOM      8  C   UNL     1       7.166  40.447  36.563  0.00  0.00    +0.000 C 
ATOM      9  C   UNL     1       7.825  40.838  37.898  0.00  0.00    +0.000 C 
ATOM     10  C   UNL     1       7.037  40.422  39.139  0.00  0.00    +0.000 C 
ATOM     11  C   UNL     1       7.385  39.009  39.609  0.00  0.00    +0.000 C 
ATOM     12  C   UNL     1       6.840  37.878  38.746  0.00  0.00    +0.000 C 
ATOM     13  C   UNL     1       7.230  37.933  37.272  0.00  0.00    +0.000 C 
ATOM     14  C   UNL     1       6.520  39.048  36.502  0.00  0.00    +0.000 C 
ENDBRANCH   5   8
ENDBRANCH   1   2
BRANCH   1  15
ATOM     15  C   UNL     1      10.688  40.792  30.843  0.00  0.00    +0.000 C 
ATOM     16  F   UNL     1       9.321  40.752  30.828  0.00  0.00    +0.000 F 
BRANCH  15  17
ATOM     17  C   UNL     1      11.275  39.469  30.334  0.00  0.00    +0.000 C 
ATOM     18  O   UNL     1      10.945  38.878  29.309  0.00  0.00    +0.000 OA
BRANCH  17  20
ATOM     19  O   UNL     1      12.212  37.980  31.951  0.00  0.00    +0.000 OA
ATOM     20  C   UNL     1      12.403  38.862  31.125  0.00  0.00    +0.000 C 
ENDBRANCH  17  20
ENDBRANCH  15  17
BRANCH  15  21
ATOM     21  N   UNL     1      11.100  41.928  29.989  0.00  0.00    +0.000 NA
ATOM     22  H   UNL     1      10.780  41.743  29.033  0.00  0.00    +0.000 HD
BRANCH  21  23
ATOM     23  C   UNL     1      10.659  43.254  30.402  0.00  0.00    +0.000 C 
ATOM     24  C   UNL     1       9.471  43.662  29.526  0.00  0.00    +0.000 C 
ATOM     25  C   UNL     1       9.398  45.180  29.627  0.00  0.00    +0.000 C 
ATOM     26  C   UNL     1      10.770  45.641  30.114  0.00  0.00    +0.000 C 
ATOM     27  C   UNL     1      11.646  44.393  30.167  0.00  0.00    +0.000 C 
ENDBRANCH  21  23
ENDBRANCH  15  21
ENDBRANCH   1  15
TORSDOF 7
ENDMDL
MODEL 2
REMARK VINA RESULT:      -6.1      2.644      3.705
REMARK  Name = 
REMARK  7 active torsions:
REMARK  status: ('A' for Active; 'I' for Inactive)
REMARK    1  A    between atoms: C_2  and  C_3
REMARK    2  A    between atoms: C_3  and  C_5
REMARK    3  A    between atoms: C_5  and  C_7
REMARK    4  A    between atoms: C_5  and  N_21
REMARK    5  A    between atoms: C_7  and  C_8
REMARK    6  A    between atoms: C_11  and  C_12
REMARK    7  A    between atoms: N_21  and  C_22
REMARK                            x       y       z     vdW  Elec       q    Type
REMARK                         _______ _______ _______ _____ _____    ______ ____
ROOT
ATOM      1  C   UNL     1       9.455  43.060  32.988  0.00  0.00    +0.000 C 
ENDROOT
BRANCH   1   2
ATOM      2  C   UNL     1       9.171  41.764  33.711  0.00  0.00    +0.000 A 
ATOM      3  C   UNL     1       8.319  41.747  34.819  0.00  0.00    +0.000 A 
ATOM      4  C   UNL     1       8.069  40.560  35.503  0.00  0.00    +0.000 A 
ATOM      5  C   UNL     1       8.646  39.354  35.088  0.00  0.00    +0.000 A 
ATOM      6  C   UNL     1       9.453  39.361  33.942  0.00  0.00    +0.000 A 
ATOM      7  C   UNL     1       9.719  40.555  33.265  0.00  0.00    +0.000 A 
BRANCH   5   8
ATOM      8  C   UNL     1       8.465  38.071  35.892  0.00  0.00    +0.000 C 
ATOM      9  C   UNL     1       7.281  37.239  35.369  0.00  0.00    +0.000 C 
ATOM     10  C   UNL     1       6.861  36.090  36.284  0.00  0.00    +0.000 C 
ATOM     11  C   UNL     1       5.837  36.519  37.334  0.00  0.00    +0.000 C 
ATOM     12  C   UNL     1       6.384  37.374  38.472  0.00  0.00    +0.000 C 
ATOM     13  C   UNL     1       7.102  38.650  38.045  0.00  0.00    +0.000 C 
ATOM     14  C   UNL     1       8.465  38.388  37.402  0.00  0.00    +0.000 C 
ENDBRANCH   5   8
ENDBRANCH   1   2
BRANCH   1  15
ATOM     15  C   UNL     1      10.946  43.460  32.842  0.00  0.00    +0.000 C 
ATOM     16  F   UNL     1      11.559  42.460  32.139  0.00  0.00    +0.000 F 
BRANCH  15  17
ATOM     17  C   UNL     1      11.652  43.692  34.184  0.00  0.00    +0.000 C 
ATOM     18  O   UNL     1      12.710  43.180  34.543  0.00  0.00    +0.000 OA
BRANCH  17  20
ATOM     19  O   UNL     1      11.033  45.884  34.904  0.00  0.00    +0.000 OA
ATOM     20  C   UNL     1      11.031  44.682  35.132  0.00  0.00    +0.000 C 
ENDBRANCH  17  20
ENDBRANCH  15  17
BRANCH  15  21
ATOM     21  N   UNL     1      10.984  44.674  31.996  0.00  0.00    +0.000 NA
ATOM     22  H   UNL     1      11.801  45.228  32.268  0.00  0.00    +0.000 HD
BRANCH  21  23
ATOM     23  C   UNL     1      10.990  44.470  30.554  0.00  0.00    +0.000 C 
ATOM     24  C   UNL     1      12.162  45.257  29.960  0.00  0.00    +0.000 C 
ATOM     25  C   UNL     1      11.822  45.437  28.487  0.00  0.00    +0.000 C 
ATOM     26  C   UNL     1      10.316  45.216  28.367  0.00  0.00    +0.000 C 
ATOM     27  C   UNL     1       9.796  45.034  29.791  0.00  0.00    +0.000 C 
ENDBRANCH  21  23
ENDBRANCH  15  21
ENDBRANCH   1  15
TORSDOF 7
ENDMDL
MODEL 3
REMARK VINA RESULT:      -5.9      5.096      9.534
REMARK  Name = 
REMARK  7 active torsions:
REMARK  status: ('A' for Active; 'I' for Inactive)
REMARK    1  A    between atoms: C_2  and  C_3
REMARK    2  A    between atoms: C_3  and  C_5
REMARK    3  A    between atoms: C_5  and  C_7
REMARK    4  A    between atoms: C_5  and  N_21
REMARK    5  A    between atoms: C_7  and  C_8
REMARK    6  A    between atoms: C_11  and  C_12
REMARK    7  A    between atoms: N_21  and  C_22
REMARK                            x       y       z     vdW  Elec       q    Type
REMARK                         _______ _______ _______ _____ _____    ______ ____
ROOT
ATOM      1  C   UNL     1       6.582  37.395  38.285  0.00  0.00    +0.000 C 
ENDROOT
BRANCH   1   2
ATOM      2  C   UNL     1       7.148  38.238  37.166  0.00  0.00    +0.000 A 
ATOM      3  C   UNL     1       6.690  39.545  36.968  0.00  0.00    +0.000 A 
ATOM      4  C   UNL     1       7.191  40.320  35.926  0.00  0.00    +0.000 A 
ATOM      5  C   UNL     1       8.177  39.823  35.066  0.00  0.00    +0.000 A 
ATOM      6  C   UNL     1       8.678  38.535  35.302  0.00  0.00    +0.000 A 
ATOM      7  C   UNL     1       8.163  37.748  36.336  0.00  0.00    +0.000 A 
BRANCH   5   8
ATOM      8  C   UNL     1       8.655  40.623  33.859  0.00  0.00    +0.000 C 
ATOM      9  C   UNL     1      10.087  40.234  33.454  0.00  0.00    +0.000 C 
ATOM     10  C   UNL     1      10.737  41.176  32.441  0.00  0.00    +0.000 C 
ATOM     11  C   UNL     1      11.457  42.349  33.107  0.00  0.00    +0.000 C 
ATOM     12  C   UNL     1      10.551  43.424  33.695  0.00  0.00    +0.000 C 
ATOM     13  C   UNL     1       9.526  42.933  34.714  0.00  0.00    +0.000 C 
ATOM     14  C   UNL     1       8.390  42.126  34.083  0.00  0.00    +0.000 C 
ENDBRANCH   5   8
ENDBRANCH   1   2
BRANCH   1  15
ATOM     15  C   UNL     1       5.322  36.555  37.951  0.00  0.00    +0.000 C 
ATOM     16  F   UNL     1       5.118  36.662  36.603  0.00  0.00    +0.000 F 
BRANCH  15  17
ATOM     17  C   UNL     1       4.073  36.993  38.726  0.00  0.00    +0.000 C 
ATOM     18  O   UNL     1       3.132  37.642  38.275  0.00  0.00    +0.000 OA
BRANCH  17  20
ATOM     19  O   UNL     1       3.826  35.358  40.451  0.00  0.00    +0.000 OA
ATOM     20  C   UNL     1       3.949  36.539  40.156  0.00  0.00    +0.000 C 
ENDBRANCH  17  20
ENDBRANCH  15  17
BRANCH  15  21
ATOM     21  N   UNL     1       5.662  35.142  38.230  0.00  0.00    +0.000 NA
ATOM     22  H   UNL     1       5.106  34.832  39.032  0.00  0.00    +0.000 HD
BRANCH  21  23
ATOM     23  C   UNL     1       5.503  34.200  37.132  0.00  0.00    +0.000 C 
ATOM     24  C   UNL     1       4.115  33.562  37.240  0.00  0.00    +0.000 C 
ATOM     25  C   UNL     1       4.200  32.270  36.438  0.00  0.00    +0.000 C 
ATOM     26  C   UNL     1       5.687  31.943  36.314  0.00  0.00    +0.000 C 
ATOM     27  C   UNL     1       6.424  32.984  37.151  0.00  0.00    +0.000 C 
ENDBRANCH  21  23
ENDBRANCH  15  21
ENDBRANCH   1  15
TORSDOF 7
ENDMDL
MODEL 4
REMARK VINA RESULT:      -5.8      4.351      8.058
REMARK  Name = 
REMARK  7 active torsions:
REMARK  status: ('A' for Active; 'I' for Inactive)
REMARK    1  A    between atoms: C_2  and  C_3
REMARK    2  A    between atoms: C_3  and  C_5
REMARK    3  A    between atoms: C_5  and  C_7
REMARK    4  A    between atoms: C_5  and  N_21
REMARK    5  A    between atoms: C_7  and  C_8
REMARK    6  A    between atoms: C_11  and  C_12
REMARK    7  A    between atoms: N_21  and  C_22
REMARK                            x       y       z     vdW  Elec       q    Type
REMARK                         _______ _______ _______ _____ _____    ______ ____
ROOT
ATOM      1  C   UNL     1      11.161  42.105  31.292  0.00  0.00    +0.000 C 
ENDROOT
BRANCH   1   2
ATOM      2  C   UNL     1      11.126  43.608  31.140  0.00  0.00    +0.000 A 
ATOM      3  C   UNL     1      11.558  44.207  29.953  0.00  0.00    +0.000 A 
ATOM      4  C   UNL     1      11.549  45.593  29.815  0.00  0.00    +0.000 A 
ATOM      5  C   UNL     1      11.088  46.418  30.847  0.00  0.00    +0.000 A 
ATOM      6  C   UNL     1      10.599  45.814  32.013  0.00  0.00    +0.000 A 
ATOM      7  C   UNL     1      10.625  44.424  32.162  0.00  0.00    +0.000 A 
BRANCH   5   8
ATOM      8  C   UNL     1      11.173  47.937  30.746  0.00  0.00    +0.000 C 
ATOM      9  C   UNL     1      11.096  48.600  32.132  0.00  0.00    +0.000 C 
ATOM     10  C   UNL     1      10.894  50.114  32.100  0.00  0.00    +0.000 C 
ATOM     11  C   UNL     1       9.418  50.509  32.049  0.00  0.00    +0.000 C 
ATOM     12  C   UNL     1       8.723  50.275  30.713  0.00  0.00    +0.000 C 
ATOM     13  C   UNL     1       8.790  48.846  30.182  0.00  0.00    +0.000 C 
ATOM     14  C   UNL     1      10.182  48.453  29.684  0.00  0.00    +0.000 C 
ENDBRANCH   5   8
ENDBRANCH   1   2
BRANCH   1  15
ATOM     15  C   UNL     1       9.900  41.333  30.827  0.00  0.00    +0.000 C 
ATOM     16  F   UNL     1       9.730  41.611  29.499  0.00  0.00    +0.000 F 
BRANCH  15  17
ATOM     17  C   UNL     1       8.637  41.688  31.622  0.00  0.00    +0.000 C 
ATOM     18  O   UNL     1       8.455  41.483  32.820  0.00  0.00    +0.000 OA
BRANCH  17  20
ATOM     19  O   UNL     1       6.583  42.901  31.481  0.00  0.00    +0.000 OA
ATOM     20  C   UNL     1       7.536  42.408  30.891  0.00  0.00    +0.000 C 
ENDBRANCH  17  20
ENDBRANCH  15  17
BRANCH  15  21
ATOM     21  N   UNL     1      10.216  39.891  30.933  0.00  0.00    +0.000 NA
ATOM     22  H   UNL     1       9.547  39.373  30.356  0.00  0.00    +0.000 HD
BRANCH  21  23
ATOM     23  C   UNL     1      11.572  39.489  30.588  0.00  0.00    +0.000 C 
ATOM     24  C   UNL     1      11.512  38.617  29.330  0.00  0.00    +0.000 C 
ATOM     25  C   UNL     1      12.814  37.826  29.324  0.00  0.00    +0.000 C 
ATOM     26  C   UNL     1      13.344  37.868  30.755  0.00  0.00    +0.000 C 
ATOM     27  C   UNL     1      12.277  38.576  31.586  0.00  0.00    +0.000 C 
ENDBRANCH  21  23
ENDBRANCH  15  21
ENDBRANCH   1  15
TORSDOF 7
ENDMDL
MODEL 5
REMARK VINA RESULT:      -5.8      2.589      3.909
REMARK  Name = 
REMARK  7 active torsions:
REMARK  status: ('A' for Active; 'I' for Inactive)
REMARK    1  A    between atoms: C_2  and  C_3
REMARK    2  A    between atoms: C_3  and  C_5
REMARK    3  A    between atoms: C_5  and  C_7
REMARK    4  A    between atoms: C_5  and  N_21
REMARK    5  A    between atoms: C_7  and  C_8
REMARK    6  A    between atoms: C_11  and  C_12
REMARK    7  A    between atoms: N_21  and  C_22
REMARK                            x       y       z     vdW  Elec       q    Type
REMARK                         _______ _______ _______ _____ _____    ______ ____
ROOT
ATOM      1  C   UNL     1       8.613  41.135  31.770  0.00  0.00    +0.000 C 
ENDROOT
BRANCH   1   2
ATOM      2  C   UNL     1       8.231  40.340  32.996  0.00  0.00    +0.000 A 
ATOM      3  C   UNL     1       6.885  40.155  33.324  0.00  0.00    +0.000 A 
ATOM      4  C   UNL     1       6.525  39.442  34.465  0.00  0.00    +0.000 A 
ATOM      5  C   UNL     1       7.498  38.875  35.298  0.00  0.00    +0.000 A 
ATOM      6  C   UNL     1       8.845  39.011  34.935  0.00  0.00    +0.000 A 
ATOM      7  C   UNL     1       9.208  39.743  33.801  0.00  0.00    +0.000 A 
BRANCH   5   8
ATOM      8  C   UNL     1       7.119  38.185  36.604  0.00  0.00    +0.000 C 
ATOM      9  C   UNL     1       5.701  38.575  37.057  0.00  0.00    +0.000 C 
ATOM     10  C   UNL     1       5.354  38.153  38.484  0.00  0.00    +0.000 C 
ATOM     11  C   UNL     1       5.759  39.200  39.521  0.00  0.00    +0.000 C 
ATOM     12  C   UNL     1       7.254  39.306  39.797  0.00  0.00    +0.000 C 
ATOM     13  C   UNL     1       8.128  39.573  38.574  0.00  0.00    +0.000 C 
ATOM     14  C   UNL     1       8.244  38.365  37.643  0.00  0.00    +0.000 C 
ENDBRANCH   5   8
ENDBRANCH   1   2
BRANCH   1  15
ATOM     15  C   UNL     1       8.769  42.667  31.957  0.00  0.00    +0.000 C 
ATOM     16  F   UNL     1       7.555  43.142  32.370  0.00  0.00    +0.000 F 
BRANCH  15  17
ATOM     17  C   UNL     1       9.234  43.394  30.688  0.00  0.00    +0.000 C 
ATOM     18  O   UNL     1       8.507  43.882  29.826  0.00  0.00    +0.000 OA
BRANCH  17  20
ATOM     19  O   UNL     1      11.343  44.425  31.135  0.00  0.00    +0.000 OA
ATOM     20  C   UNL     1      10.715  43.585  30.503  0.00  0.00    +0.000 C 
ENDBRANCH  17  20
ENDBRANCH  15  17
BRANCH  15  21
ATOM     21  N   UNL     1       9.719  42.868  33.073  0.00  0.00    +0.000 NA
ATOM     22  H   UNL     1      10.592  43.240  32.687  0.00  0.00    +0.000 HD
BRANCH  21  23
ATOM     23  C   UNL     1       9.273  43.714  34.171  0.00  0.00    +0.000 C 
ATOM     24  C   UNL     1      10.461  44.555  34.647  0.00  0.00    +0.000 C 
ATOM     25  C   UNL     1      10.102  44.997  36.060  0.00  0.00    +0.000 C 
ATOM     26  C   UNL     1       9.014  44.041  36.542  0.00  0.00    +0.000 C 
ATOM     27  C   UNL     1       8.852  42.991  35.447  0.00  0.00    +0.000 C 
ENDBRANCH  21  23
ENDBRANCH  15  21
ENDBRANCH   1  15
TORSDOF 7
ENDMDL
MODEL 6
REMARK VINA RESULT:      -5.8      4.261      6.816
REMARK  Name = 
REMARK  7 active torsions:
REMARK  status: ('A' for Active; 'I' for Inactive)
REMARK    1  A    between atoms: C_2  and  C_3
REMARK    2  A    between atoms: C_3  and  C_5
REMARK    3  A    between atoms: C_5  and  C_7
REMARK    4  A    between atoms: C_5  and  N_21
REMARK    5  A    between atoms: C_7  and  C_8
REMARK    6  A    between atoms: C_11  and  C_12
REMARK    7  A    between atoms: N_21  and  C_22
REMARK                            x       y       z     vdW  Elec       q    Type
REMARK                         _______ _______ _______ _____ _____    ______ ____
ROOT
ATOM      1  C   UNL     1      10.330  42.049  33.522  0.00  0.00    +0.000 C 
ENDROOT
BRANCH   1   2
ATOM      2  C   UNL     1       9.810  41.587  32.181  0.00  0.00    +0.000 A 
ATOM      3  C   UNL     1      10.666  40.953  31.274  0.00  0.00    +0.000 A 
ATOM      4  C   UNL     1      10.199  40.543  30.028  0.00  0.00    +0.000 A 
ATOM      5  C   UNL     1       8.862  40.735  29.660  0.00  0.00    +0.000 A 
ATOM      6  C   UNL     1       7.992  41.316  30.592  0.00  0.00    +0.000 A 
ATOM      7  C   UNL     1       8.463  41.745  31.836  0.00  0.00    +0.000 A 
BRANCH   5   8
ATOM      8  C   UNL     1       8.368  40.387  28.259  0.00  0.00    +0.000 C 
ATOM      9  C   UNL     1       7.365  41.432  27.740  0.00  0.00    +0.000 C 
ATOM     10  C   UNL     1       6.617  41.017  26.474  0.00  0.00    +0.000 C 
ATOM     11  C   UNL     1       5.340  40.233  26.777  0.00  0.00    +0.000 C 
ATOM     12  C   UNL     1       5.547  38.802  27.259  0.00  0.00    +0.000 C 
ATOM     13  C   UNL     1       6.432  38.649  28.493  0.00  0.00    +0.000 C 
ATOM     14  C   UNL     1       7.911  38.915  28.210  0.00  0.00    +0.000 C 
ENDBRANCH   5   8
ENDBRANCH   1   2
BRANCH   1  15
ATOM     15  C   UNL     1      11.046  43.425  33.551  0.00  0.00    +0.000 C 
ATOM     16  F   UNL     1      12.333  43.212  33.144  0.00  0.00    +0.000 F 
BRANCH  15  17
ATOM     17  C   UNL     1      11.016  44.100  34.928  0.00  0.00    +0.000 C 
ATOM     18  O   UNL     1      11.956  44.676  35.472  0.00  0.00    +0.000 OA
BRANCH  17  20
ATOM     19  O   UNL     1       8.737  44.745  35.249  0.00  0.00    +0.000 OA
ATOM     20  C   UNL     1       9.703  44.118  35.664  0.00  0.00    +0.000 C 
ENDBRANCH  17  20
ENDBRANCH  15  17
BRANCH  15  21
ATOM     21  N   UNL     1      10.396  44.268  32.523  0.00  0.00    +0.000 NA
ATOM     22  H   UNL     1       9.781  44.935  32.998  0.00  0.00    +0.000 HD
BRANCH  21  23
ATOM     23  C   UNL     1      11.276  44.981  31.608  0.00  0.00    +0.000 C 
ATOM     24  C   UNL     1      10.647  46.342  31.295  0.00  0.00    +0.000 C 
ATOM     25  C   UNL     1      11.295  46.798  29.994  0.00  0.00    +0.000 C 
ATOM     26  C   UNL     1      11.873  45.542  29.344  0.00  0.00    +0.000 C 
ATOM     27  C   UNL     1      11.440  44.370  30.220  0.00  0.00    +0.000 C 
ENDBRANCH  21  23
ENDBRANCH  15  21
ENDBRANCH   1  15
TORSDOF 7
ENDMDL
MODEL 7
REMARK VINA RESULT:      -5.5      4.719      7.625
REMARK  Name = 
REMARK  7 active torsions:
REMARK  status: ('A' for Active; 'I' for Inactive)
REMARK    1  A    between atoms: C_2  and  C_3
REMARK    2  A    between atoms: C_3  and  C_5
REMARK    3  A    between atoms: C_5  and  C_7
REMARK    4  A    between atoms: C_5  and  N_21
REMARK    5  A    between atoms: C_7  and  C_8
REMARK    6  A    between atoms: C_11  and  C_12
REMARK    7  A    between atoms: N_21  and  C_22
REMARK                            x       y       z     vdW  Elec       q    Type
REMARK                         _______ _______ _______ _____ _____    ______ ____
ROOT
ATOM      1  C   UNL     1       8.181  40.583  31.823  0.00  0.00    +0.000 C 
ENDROOT
BRANCH   1   2
ATOM      2  C   UNL     1       7.366  40.213  30.606  0.00  0.00    +0.000 A 
ATOM      3  C   UNL     1       7.977  39.603  29.507  0.00  0.00    +0.000 A 
ATOM      4  C   UNL     1       7.236  39.278  28.374  0.00  0.00    +0.000 A 
ATOM      5  C   UNL     1       5.860  39.533  28.314  0.00  0.00    +0.000 A 
ATOM      6  C   UNL     1       5.238  40.091  29.439  0.00  0.00    +0.000 A 
ATOM      7  C   UNL     1       5.984  40.434  30.571  0.00  0.00    +0.000 A 
BRANCH   5   8
ATOM      8  C   UNL     1       5.062  39.280  27.040  0.00  0.00    +0.000 C 
ATOM      9  C   UNL     1       5.902  39.562  25.782  0.00  0.00    +0.000 C 
ATOM     10  C   UNL     1       5.101  39.603  24.482  0.00  0.00    +0.000 C 
ATOM     11  C   UNL     1       4.543  40.994  24.179  0.00  0.00    +0.000 C 
ATOM     12  C   UNL     1       3.370  41.433  25.047  0.00  0.00    +0.000 C 
ATOM     13  C   UNL     1       3.622  41.405  26.552  0.00  0.00    +0.000 C 
ATOM     14  C   UNL     1       3.694  39.988  27.123  0.00  0.00    +0.000 C 
ENDBRANCH   5   8
ENDBRANCH   1   2
BRANCH   1  15
ATOM     15  C   UNL     1       9.385  41.532  31.587  0.00  0.00    +0.000 C 
ATOM     16  F   UNL     1       8.991  42.452  30.656  0.00  0.00    +0.000 F 
BRANCH  15  17
ATOM     17  C   UNL     1      10.656  40.805  31.129  0.00  0.00    +0.000 C 
ATOM     18  O   UNL     1      11.376  41.130  30.187  0.00  0.00    +0.000 OA
BRANCH  17  20
ATOM     19  O   UNL     1      11.239  39.674  33.152  0.00  0.00    +0.000 OA
ATOM     20  C   UNL     1      11.105  39.617  31.936  0.00  0.00    +0.000 C 
ENDBRANCH  17  20
ENDBRANCH  15  17
BRANCH  15  21
ATOM     21  N   UNL     1       9.610  42.263  32.854  0.00  0.00    +0.000 NA
ATOM     22  H   UNL     1       9.799  41.576  33.591  0.00  0.00    +0.000 HD
BRANCH  21  23
ATOM     23  C   UNL     1      10.657  43.275  32.852  0.00  0.00    +0.000 C 
ATOM     24  C   UNL     1      11.560  43.039  34.066  0.00  0.00    +0.000 C 
ATOM     25  C   UNL     1      12.270  44.365  34.305  0.00  0.00    +0.000 C 
ATOM     26  C   UNL     1      11.439  45.428  33.591  0.00  0.00    +0.000 C 
ATOM     27  C   UNL     1      10.199  44.715  33.059  0.00  0.00    +0.000 C 
ENDBRANCH  21  23
ENDBRANCH  15  21
ENDBRANCH   1  15
TORSDOF 7
ENDMDL
MODEL 8
REMARK VINA RESULT:      -5.0      4.632      6.540
REMARK  Name = 
REMARK  7 active torsions:
REMARK  status: ('A' for Active; 'I' for Inactive)
REMARK    1  A    between atoms: C_2  and  C_3
REMARK    2  A    between atoms: C_3  and  C_5
REMARK    3  A    between atoms: C_5  and  C_7
REMARK    4  A    between atoms: C_5  and  N_21
REMARK    5  A    between atoms: C_7  and  C_8
REMARK    6  A    between atoms: C_11  and  C_12
REMARK    7  A    between atoms: N_21  and  C_22
REMARK                            x       y       z     vdW  Elec       q    Type
REMARK                         _______ _______ _______ _____ _____    ______ ____
ROOT
ATOM      1  C   UNL     1       6.003  40.303  30.934  0.00  0.00    +0.000 C 
ENDROOT
BRANCH   1   2
ATOM      2  C   UNL     1       6.642  41.375  31.786  0.00  0.00    +0.000 A 
ATOM      3  C   UNL     1       7.947  41.801  31.521  0.00  0.00    +0.000 A 
ATOM      4  C   UNL     1       8.550  42.773  32.315  0.00  0.00    +0.000 A 
ATOM      5  C   UNL     1       7.860  43.362  33.382  0.00  0.00    +0.000 A 
ATOM      6  C   UNL     1       6.532  42.977  33.610  0.00  0.00    +0.000 A 
ATOM      7  C   UNL     1       5.932  41.988  32.825  0.00  0.00    +0.000 A 
BRANCH   5   8
ATOM      8  C   UNL     1       8.547  44.348  34.321  0.00  0.00    +0.000 C 
ATOM      9  C   UNL     1       9.031  45.600  33.570  0.00  0.00    +0.000 C 
ATOM     10  C   UNL     1       9.966  46.500  34.375  0.00  0.00    +0.000 C 
ATOM     11  C   UNL     1      11.434  46.095  34.238  0.00  0.00    +0.000 C 
ATOM     12  C   UNL     1      11.835  44.825  34.979  0.00  0.00    +0.000 C 
ATOM     13  C   UNL     1      11.025  43.580  34.630  0.00  0.00    +0.000 C 
ATOM     14  C   UNL     1       9.598  43.616  35.180  0.00  0.00    +0.000 C 
ENDBRANCH   5   8
ENDBRANCH   1   2
BRANCH   1  15
ATOM     15  C   UNL     1       5.571  40.721  29.504  0.00  0.00    +0.000 C 
ATOM     16  F   UNL     1       5.459  42.083  29.504  0.00  0.00    +0.000 F 
BRANCH  15  17
ATOM     17  C   UNL     1       4.261  40.067  29.045  0.00  0.00    +0.000 C 
ATOM     18  O   UNL     1       3.514  39.381  29.739  0.00  0.00    +0.000 OA
BRANCH  17  20
ATOM     19  O   UNL     1       4.535  40.120  26.672  0.00  0.00    +0.000 OA
ATOM     20  C   UNL     1       3.810  40.334  27.635  0.00  0.00    +0.000 C 
ENDBRANCH  17  20
ENDBRANCH  15  17
BRANCH  15  21
ATOM     21  N   UNL     1       6.691  40.375  28.600  0.00  0.00    +0.000 NA
ATOM     22  H   UNL     1       7.340  41.167  28.578  0.00  0.00    +0.000 HD
BRANCH  21  23
ATOM     23  C   UNL     1       7.423  39.152  28.899  0.00  0.00    +0.000 C 
ATOM     24  C   UNL     1       8.922  39.455  28.821  0.00  0.00    +0.000 C 
ATOM     25  C   UNL     1       9.597  38.105  28.620  0.00  0.00    +0.000 C 
ATOM     26  C   UNL     1       8.514  37.161  28.100  0.00  0.00    +0.000 C 
ATOM     27  C   UNL     1       7.266  38.014  27.895  0.00  0.00    +0.000 C 
ENDBRANCH  21  23
ENDBRANCH  15  21
ENDBRANCH   1  15
TORSDOF 7
ENDMDL
MODEL 9
REMARK VINA RESULT:      -4.2      3.992      7.950
REMARK  Name = 
REMARK  7 active torsions:
REMARK  status: ('A' for Active; 'I' for Inactive)
REMARK    1  A    between atoms: C_2  and  C_3
REMARK    2  A    between atoms: C_3  and  C_5
REMARK    3  A    between atoms: C_5  and  C_7
REMARK    4  A    between atoms: C_5  and  N_21
REMARK    5  A    between atoms: C_7  and  C_8
REMARK    6  A    between atoms: C_11  and  C_12
REMARK    7  A    between atoms: N_21  and  C_22
REMARK                            x       y       z     vdW  Elec       q    Type
REMARK                         _______ _______ _______ _____ _____    ______ ____
ROOT
ATOM      1  C   UNL     1       4.661  41.898  32.748  0.00  0.00    +0.000 C 
ENDROOT
BRANCH   1   2
ATOM      2  C   UNL     1       6.027  42.543  32.743  0.00  0.00    +0.000 A 
ATOM      3  C   UNL     1       6.445  43.316  33.830  0.00  0.00    +0.000 A 
ATOM      4  C   UNL     1       7.694  43.931  33.824  0.00  0.00    +0.000 A 
ATOM      5  C   UNL     1       8.569  43.775  32.742  0.00  0.00    +0.000 A 
ATOM      6  C   UNL     1       8.173  42.952  31.679  0.00  0.00    +0.000 A 
ATOM      7  C   UNL     1       6.912  42.349  31.675  0.00  0.00    +0.000 A 
BRANCH   5   8
ATOM      8  C   UNL     1       9.893  44.529  32.678  0.00  0.00    +0.000 C 
ATOM      9  C   UNL     1       9.687  45.995  32.258  0.00  0.00    +0.000 C 
ATOM     10  C   UNL     1      10.973  46.738  31.901  0.00  0.00    +0.000 C 
ATOM     11  C   UNL     1      11.355  46.578  30.429  0.00  0.00    +0.000 C 
ATOM     12  C   UNL     1      11.904  45.211  30.040  0.00  0.00    +0.000 C 
ATOM     13  C   UNL     1      11.000  44.025  30.366  0.00  0.00    +0.000 C 
ATOM     14  C   UNL     1      10.923  43.722  31.863  0.00  0.00    +0.000 C 
ENDBRANCH   5   8
ENDBRANCH   1   2
BRANCH   1  15
ATOM     15  C   UNL     1       4.617  40.370  33.008  0.00  0.00    +0.000 C 
ATOM     16  F   UNL     1       5.384  39.779  32.042  0.00  0.00    +0.000 F 
BRANCH  15  17
ATOM     17  C   UNL     1       3.197  39.789  33.005  0.00  0.00    +0.000 C 
ATOM     18  O   UNL     1       2.516  39.548  32.010  0.00  0.00    +0.000 OA
BRANCH  17  20
ATOM     19  O   UNL     1       2.880  38.376  34.905  0.00  0.00    +0.000 OA
ATOM     20  C   UNL     1       2.595  39.420  34.334  0.00  0.00    +0.000 C 
ENDBRANCH  17  20
ENDBRANCH  15  17
BRANCH  15  21
ATOM     21  N   UNL     1       5.292  40.136  34.304  0.00  0.00    +0.000 NA
ATOM     22  H   UNL     1       4.603  39.755  34.960  0.00  0.00    +0.000 HD
BRANCH  21  23
ATOM     23  C   UNL     1       6.472  39.283  34.286  0.00  0.00    +0.000 C 
ATOM     24  C   UNL     1       6.238  38.114  35.247  0.00  0.00    +0.000 C 
ATOM     25  C   UNL     1       7.625  37.581  35.581  0.00  0.00    +0.000 C 
ATOM     26  C   UNL     1       8.605  38.701  35.238  0.00  0.00    +0.000 C 
ATOM     27  C   UNL     1       7.756  39.902  34.830  0.00  0.00    +0.000 C 
ENDBRANCH  21  23
ENDBRANCH  15  21
ENDBRANCH   1  15
TORSDOF 7
ENDMDL
MODEL 10
REMARK VINA RESULT:      -3.7      3.838      8.320
REMARK  Name = 
REMARK  7 active torsions:
REMARK  status: ('A' for Active; 'I' for Inactive)
REMARK    1  A    between atoms: C_2  and  C_3
REMARK    2  A    between atoms: C_3  and  C_5
REMARK    3  A    between atoms: C_5  and  C_7
REMARK    4  A    between atoms: C_5  and  N_21
REMARK    5  A    between atoms: C_7  and  C_8
REMARK    6  A    between atoms: C_11  and  C_12
REMARK    7  A    between atoms: N_21  and  C_22
REMARK                            x       y       z     vdW  Elec       q    Type
REMARK                         _______ _______ _______ _____ _____    ______ ____
ROOT
ATOM      1  C   UNL     1       5.128  42.379  31.176  0.00  0.00    +0.000 C 
ENDROOT
BRANCH   1   2
ATOM      2  C   UNL     1       6.437  43.121  31.037  0.00  0.00    +0.000 A 
ATOM      3  C   UNL     1       6.940  43.868  32.106  0.00  0.00    +0.000 A 
ATOM      4  C   UNL     1       8.135  44.571  31.978  0.00  0.00    +0.000 A 
ATOM      5  C   UNL     1       8.872  44.531  30.788  0.00  0.00    +0.000 A 
ATOM      6  C   UNL     1       8.397  43.734  29.738  0.00  0.00    +0.000 A 
ATOM      7  C   UNL     1       7.188  43.043  29.858  0.00  0.00    +0.000 A 
BRANCH   5   8
ATOM      8  C   UNL     1      10.124  45.381  30.602  0.00  0.00    +0.000 C 
ATOM      9  C   UNL     1      10.198  46.513  31.642  0.00  0.00    +0.000 C 
ATOM     10  C   UNL     1      11.263  47.569  31.354  0.00  0.00    +0.000 C 
ATOM     11  C   UNL     1      10.748  48.695  30.458  0.00  0.00    +0.000 C 
ATOM     12  C   UNL     1      10.554  48.329  28.991  0.00  0.00    +0.000 C 
ATOM     13  C   UNL     1       9.639  47.137  28.729  0.00  0.00    +0.000 C 
ATOM     14  C   UNL     1      10.265  45.799  29.124  0.00  0.00    +0.000 C 
ENDBRANCH   5   8
ENDBRANCH   1   2
BRANCH   1  15
ATOM     15  C   UNL     1       5.216  40.895  31.616  0.00  0.00    +0.000 C 
ATOM     16  F   UNL     1       6.141  40.294  30.807  0.00  0.00    +0.000 F 
BRANCH  15  17
ATOM     17  C   UNL     1       3.873  40.156  31.547  0.00  0.00    +0.000 C 
ATOM     18  O   UNL     1       3.382  39.639  30.546  0.00  0.00    +0.000 OA
BRANCH  17  20
ATOM     19  O   UNL     1       2.884  38.888  33.315  0.00  0.00    +0.000 OA
ATOM     20  C   UNL     1       3.106  39.991  32.832  0.00  0.00    +0.000 C 
ENDBRANCH  17  20
ENDBRANCH  15  17
BRANCH  15  21
ATOM     21  N   UNL     1       5.766  40.886  32.989  0.00  0.00    +0.000 NA
ATOM     22  H   UNL     1       4.994  40.728  33.643  0.00  0.00    +0.000 HD
BRANCH  21  23
ATOM     23  C   UNL     1       6.838  39.938  33.261  0.00  0.00    +0.000 C 
ATOM     24  C   UNL     1       6.509  39.199  34.562  0.00  0.00    +0.000 C 
ATOM     25  C   UNL     1       7.838  38.642  35.057  0.00  0.00    +0.000 C 
ATOM     26  C   UNL     1       8.926  39.452  34.355  0.00  0.00    +0.000 C 
ATOM     27  C   UNL     1       8.206  40.540  33.564  0.00  0.00    +0.000 C 
ENDBRANCH  21  23
ENDBRANCH  15  21
ENDBRANCH   1  15
TORSDOF 7
ENDMDL
