MODEL 1
REMARK VINA RESULT:      36.4      0.000      0.000
REMARK  Name = 
REMARK  4 active torsions:
REMARK  status: ('A' for Active; 'I' for Inactive)
REMARK    1  A    between atoms: C_8  and  C_9
REMARK    2  A    between atoms: C_14  and  C_15
REMARK    3  A    between atoms: C_20  and  C_21
REMARK    4  A    between atoms: C_26  and  C_27
REMARK                            x       y       z     vdW  Elec       q    Type
REMARK                         _______ _______ _______ _____ _____    ______ ____
ROOT
ATOM      1  C   UNL     1     -22.044   8.935  22.633  0.00  0.00    +0.000 A 
ATOM      2  C   UNL     1     -22.656   7.882  21.982  0.00  0.00    +0.000 A 
ATOM      3  C   UNL     1     -23.542   7.028  22.675  0.00  0.00    +0.000 A 
ATOM      4  C   UNL     1     -23.826   7.226  24.047  0.00  0.00    +0.000 A 
ATOM      5  N   UNL     1     -24.806   6.432  24.665  0.00  0.00    +0.000 N 
ATOM      6  C   UNL     1     -24.816   6.557  26.134  0.00  0.00    +0.000 C 
ATOM      7  C   UNL     1     -25.020   8.086  26.445  0.00  0.00    +0.000 C 
ATOM      8  C   UNL     1     -25.122   8.466  27.924  0.00  0.00    +0.000 C 
ATOM      9  C   UNL     1     -23.695   8.293  28.343  0.00  0.00    +0.000 C 
ATOM     10  C   UNL     1     -22.882   8.445  27.288  0.00  0.00    +0.000 C 
ATOM     11  C   UNL     1     -23.698   8.769  26.055  0.00  0.00    +0.000 C 
ATOM     12  C   UNL     1     -23.259   8.338  24.681  0.00  0.00    +0.000 A 
ATOM     13  C   UNL     1     -22.316   9.129  24.008  0.00  0.00    +0.000 A 
ATOM     14  H   UNL     1     -24.823   5.478  24.331  0.00  0.00    +0.000 HD
ENDROOT
BRANCH   1  20
ATOM     15  C   UNL     1     -18.463  12.241  18.311  0.00  0.00    +0.000 A 
ATOM     16  C   UNL     1     -18.799  10.963  17.844  0.00  0.00    +0.000 A 
ATOM     17  C   UNL     1     -19.590  10.104  18.615  0.00  0.00    +0.000 A 
ATOM     18  C   UNL     1     -20.045  10.484  19.883  0.00  0.00    +0.000 A 
ATOM     19  N   UNL     1     -21.017   9.670  20.520  0.00  0.00    +0.000 N 
ATOM     20  C   UNL     1     -21.143   9.944  21.942  0.00  0.00    +0.000 C 
ATOM     21  C   UNL     1     -21.526  11.453  22.110  0.00  0.00    +0.000 C 
ATOM     22  C   UNL     1     -21.707  11.923  23.552  0.00  0.00    +0.000 C 
ATOM     23  C   UNL     1     -20.287  11.891  24.027  0.00  0.00    +0.000 C 
ATOM     24  C   UNL     1     -19.457  12.091  22.973  0.00  0.00    +0.000 C 
ATOM     25  C   UNL     1     -20.265  12.250  21.698  0.00  0.00    +0.000 C 
ATOM     26  C   UNL     1     -19.680  11.747  20.394  0.00  0.00    +0.000 A 
ATOM     27  C   UNL     1     -18.877  12.606  19.610  0.00  0.00    +0.000 A 
ATOM     28  H   UNL     1     -20.864   8.685  20.329  0.00  0.00    +0.000 HD
BRANCH  15  36
ATOM     29  C   UNL     1     -17.971  15.091  12.926  0.00  0.00    +0.000 A 
ATOM     30  C   UNL     1     -17.430  16.300  13.344  0.00  0.00    +0.000 A 
ATOM     31  C   UNL     1     -17.224  16.524  14.701  0.00  0.00    +0.000 A 
ATOM     32  C   UNL     1     -17.520  15.524  15.650  0.00  0.00    +0.000 A 
ATOM     33  C   UNL     1     -18.089  14.317  15.234  0.00  0.00    +0.000 A 
ATOM     34  C   UNL     1     -18.322  14.119  13.867  0.00  0.00    +0.000 A 
ATOM     35  N   UNL     1     -18.591  13.398  16.174  0.00  0.00    +0.000 N 
ATOM     36  C   UNL     1     -17.769  13.238  17.379  0.00  0.00    +0.000 C 
ATOM     37  C   UNL     1     -17.452  14.570  18.062  0.00  0.00    +0.000 C 
ATOM     38  C   UNL     1     -16.073  14.519  18.734  0.00  0.00    +0.000 C 
ATOM     39  C   UNL     1     -15.596  15.917  18.617  0.00  0.00    +0.000 C 
ATOM     40  C   UNL     1     -16.162  16.507  17.561  0.00  0.00    +0.000 C 
ATOM     41  C   UNL     1     -17.406  15.795  17.116  0.00  0.00    +0.000 C 
ATOM     42  H   UNL     1     -18.777  12.495  15.745  0.00  0.00    +0.000 HD
ENDBRANCH  15  36
ENDBRANCH   1  20
BRANCH   6  43
ATOM     43  C   UNL     1     -25.796   5.595  26.802  0.00  0.00    +0.000 A 
ATOM     44  C   UNL     1     -26.661   6.118  27.792  0.00  0.00    +0.000 A 
ATOM     45  C   UNL     1     -27.411   5.289  28.624  0.00  0.00    +0.000 A 
ATOM     46  C   UNL     1     -27.363   3.916  28.452  0.00  0.00    +0.000 A 
ATOM     47  C   UNL     1     -26.588   3.377  27.430  0.00  0.00    +0.000 A 
ATOM     48  C   UNL     1     -25.800   4.183  26.572  0.00  0.00    +0.000 A 
BRANCH  48  49
ATOM     49  C   UNL     1     -25.003   3.437  25.475  0.00  0.00    +0.000 C 
ATOM     50  N   UNL     1     -24.874   4.339  24.316  0.00  0.00    +0.000 N 
ATOM     51  C   UNL     1     -24.031   3.942  23.271  0.00  0.00    +0.000 A 
ATOM     52  C   UNL     1     -24.118   4.595  22.025  0.00  0.00    +0.000 A 
ATOM     53  C   UNL     1     -23.208   4.326  20.999  0.00  0.00    +0.000 A 
ATOM     54  C   UNL     1     -22.193   3.399  21.194  0.00  0.00    +0.000 A 
ATOM     55  C   UNL     1     -22.078   2.758  22.424  0.00  0.00    +0.000 A 
ATOM     56  C   UNL     1     -22.979   3.046  23.472  0.00  0.00    +0.000 A 
ATOM     57  C   UNL     1     -22.733   2.442  24.825  0.00  0.00    +0.000 C 
ATOM     58  C   UNL     1     -23.043   0.977  24.949  0.00  0.00    +0.000 C 
ATOM     59  C   UNL     1     -23.514   0.700  26.171  0.00  0.00    +0.000 C 
ATOM     60  C   UNL     1     -23.597   1.928  27.014  0.00  0.00    +0.000 C 
ATOM     61  C   UNL     1     -23.578   3.050  25.966  0.00  0.00    +0.000 C 
ATOM     62  H   UNL     1     -25.758   4.726  24.003  0.00  0.00    +0.000 HD
ENDBRANCH  48  49
ENDBRANCH   6  43
TORSDOF 4
ENDMDL
