MODEL 1
REMARK VINA RESULT:      -8.2      0.000      0.000
REMARK  Name = 
REMARK  4 active torsions:
REMARK  status: ('A' for Active; 'I' for Inactive)
REMARK    1  A    between atoms: C_8  and  C_9
REMARK    2  A    between atoms: C_14  and  C_15
REMARK    3  A    between atoms: C_20  and  C_21
REMARK    4  A    between atoms: C_26  and  C_27
REMARK                            x       y       z     vdW  Elec       q    Type
REMARK                         _______ _______ _______ _____ _____    ______ ____
ROOT
ATOM      1  C   UNL     1     -34.495   7.936   7.946  0.00  0.00    +0.000 A 
ATOM      2  C   UNL     1     -34.669   8.697   6.763  0.00  0.00    +0.000 A 
ATOM      3  C   UNL     1     -34.198  10.003   6.648  0.00  0.00    +0.000 A 
ATOM      4  C   UNL     1     -33.585  10.612   7.730  0.00  0.00    +0.000 A 
ATOM      5  C   UNL     1     -33.459   9.922   8.933  0.00  0.00    +0.000 A 
ATOM      6  C   UNL     1     -33.907   8.583   9.085  0.00  0.00    +0.000 A 
ENDROOT
BRANCH   1  12
ATOM      7  C   UNL     1     -34.330   1.398   7.509  0.00  0.00    +0.000 A 
ATOM      8  C   UNL     1     -33.043   1.955   7.443  0.00  0.00    +0.000 A 
ATOM      9  C   UNL     1     -32.838   3.338   7.568  0.00  0.00    +0.000 A 
ATOM     10  C   UNL     1     -33.904   4.226   7.744  0.00  0.00    +0.000 A 
ATOM     11  N   UNL     1     -33.642   5.592   8.014  0.00  0.00    +0.000 N 
ATOM     12  C   UNL     1     -34.828   6.444   7.873  0.00  0.00    +0.000 C 
ATOM     13  C   UNL     1     -35.874   5.860   8.922  0.00  0.00    +0.000 C 
ATOM     14  C   UNL     1     -37.203   6.603   9.065  0.00  0.00    +0.000 C 
ATOM     15  C   UNL     1     -37.816   6.282   7.736  0.00  0.00    +0.000 C 
ATOM     16  C   UNL     1     -37.340   5.107   7.295  0.00  0.00    +0.000 C 
ATOM     17  C   UNL     1     -36.360   4.534   8.312  0.00  0.00    +0.000 C 
ATOM     18  C   UNL     1     -35.211   3.678   7.844  0.00  0.00    +0.000 A 
ATOM     19  C   UNL     1     -35.411   2.282   7.684  0.00  0.00    +0.000 A 
ATOM     20  H   UNL     1     -32.818   5.935   7.533  0.00  0.00    +0.000 HD
BRANCH   7  28
ATOM     21  C   UNL     1     -32.099  -4.207   8.483  0.00  0.00    +0.000 A 
ATOM     22  C   UNL     1     -33.257  -4.862   8.881  0.00  0.00    +0.000 A 
ATOM     23  C   UNL     1     -34.445  -4.145   8.993  0.00  0.00    +0.000 A 
ATOM     24  C   UNL     1     -34.498  -2.775   8.675  0.00  0.00    +0.000 A 
ATOM     25  C   UNL     1     -33.338  -2.103   8.287  0.00  0.00    +0.000 A 
ATOM     26  C   UNL     1     -32.131  -2.836   8.215  0.00  0.00    +0.000 A 
ATOM     27  N   UNL     1     -33.312  -0.712   8.155  0.00  0.00    +0.000 N 
ATOM     28  C   UNL     1     -34.511  -0.128   7.540  0.00  0.00    +0.000 C 
ATOM     29  C   UNL     1     -35.811  -0.586   8.220  0.00  0.00    +0.000 C 
ATOM     30  C   UNL     1     -36.969  -0.688   7.211  0.00  0.00    +0.000 C 
ATOM     31  C   UNL     1     -37.837  -1.771   7.786  0.00  0.00    +0.000 C 
ATOM     32  C   UNL     1     -37.048  -2.650   8.430  0.00  0.00    +0.000 C 
ATOM     33  C   UNL     1     -35.756  -1.977   8.893  0.00  0.00    +0.000 C 
ATOM     34  H   UNL     1     -32.473  -0.396   7.677  0.00  0.00    +0.000 HD
ENDBRANCH   7  28
ENDBRANCH   1  12
BRANCH   6  35
ATOM     35  C   UNL     1     -33.678   7.950  10.483  0.00  0.00    +0.000 C 
ATOM     36  N   UNL     1     -34.968   7.467  11.003  0.00  0.00    +0.000 N 
ATOM     37  C   UNL     1     -35.029   6.620  12.106  0.00  0.00    +0.000 A 
ATOM     38  C   UNL     1     -36.233   6.393  12.787  0.00  0.00    +0.000 A 
ATOM     39  C   UNL     1     -36.319   5.488  13.860  0.00  0.00    +0.000 A 
ATOM     40  C   UNL     1     -35.196   4.760  14.273  0.00  0.00    +0.000 A 
ATOM     41  C   UNL     1     -33.997   4.983  13.591  0.00  0.00    +0.000 A 
ATOM     42  C   UNL     1     -33.906   5.897  12.520  0.00  0.00    +0.000 A 
ATOM     43  C   UNL     1     -32.615   5.994  11.769  0.00  0.00    +0.000 C 
ATOM     44  C   UNL     1     -31.496   6.725  12.457  0.00  0.00    +0.000 C 
ATOM     45  C   UNL     1     -30.713   7.326  11.552  0.00  0.00    +0.000 C 
ATOM     46  C   UNL     1     -31.243   7.114  10.161  0.00  0.00    +0.000 C 
ATOM     47  C   UNL     1     -32.703   6.725  10.418  0.00  0.00    +0.000 C 
ATOM     48  H   UNL     1     -35.799   7.985  10.741  0.00  0.00    +0.000 HD
BRANCH  40  49
ATOM     49  C   UNL     1     -35.232   3.758  15.410  0.00  0.00    +0.000 C 
ATOM     50  N   UNL     1     -35.178   2.405  14.848  0.00  0.00    +0.000 N 
ATOM     51  C   UNL     1     -35.246   1.369  15.795  0.00  0.00    +0.000 A 
ATOM     52  C   UNL     1     -35.596   0.080  15.373  0.00  0.00    +0.000 A 
ATOM     53  C   UNL     1     -35.571  -1.000  16.258  0.00  0.00    +0.000 A 
ATOM     54  C   UNL     1     -35.175  -0.808  17.578  0.00  0.00    +0.000 A 
ATOM     55  C   UNL     1     -34.797   0.462  18.007  0.00  0.00    +0.000 A 
ATOM     56  C   UNL     1     -34.810   1.554  17.119  0.00  0.00    +0.000 A 
ATOM     57  C   UNL     1     -34.288   2.887  17.582  0.00  0.00    +0.000 C 
ATOM     58  C   UNL     1     -35.181   3.650  18.531  0.00  0.00    +0.000 C 
ATOM     59  C   UNL     1     -35.081   4.969  18.322  0.00  0.00    +0.000 C 
ATOM     60  C   UNL     1     -34.142   5.264  17.194  0.00  0.00    +0.000 C 
ATOM     61  C   UNL     1     -34.092   3.919  16.450  0.00  0.00    +0.000 C 
ATOM     62  H   UNL     1     -35.854   2.278  14.098  0.00  0.00    +0.000 HD
ENDBRANCH  40  49
ENDBRANCH   6  35
TORSDOF 4
ENDMDL
MODEL 2
REMARK VINA RESULT:      -6.0      1.403      2.229
REMARK  Name = 
REMARK  4 active torsions:
REMARK  status: ('A' for Active; 'I' for Inactive)
REMARK    1  A    between atoms: C_8  and  C_9
REMARK    2  A    between atoms: C_14  and  C_15
REMARK    3  A    between atoms: C_20  and  C_21
REMARK    4  A    between atoms: C_26  and  C_27
REMARK                            x       y       z     vdW  Elec       q    Type
REMARK                         _______ _______ _______ _____ _____    ______ ____
ROOT
ATOM      1  C   UNL     1     -34.375   7.622   8.025  0.00  0.00    +0.000 A 
ATOM      2  C   UNL     1     -34.317   8.357   6.814  0.00  0.00    +0.000 A 
ATOM      3  C   UNL     1     -33.683   9.595   6.730  0.00  0.00    +0.000 A 
ATOM      4  C   UNL     1     -33.134  10.166   7.865  0.00  0.00    +0.000 A 
ATOM      5  C   UNL     1     -33.233   9.508   9.089  0.00  0.00    +0.000 A 
ATOM      6  C   UNL     1     -33.852   8.236   9.213  0.00  0.00    +0.000 A 
ENDROOT
BRANCH   1  12
ATOM      7  C   UNL     1     -34.968   1.095   7.967  0.00  0.00    +0.000 A 
ATOM      8  C   UNL     1     -33.643   1.493   8.205  0.00  0.00    +0.000 A 
ATOM      9  C   UNL     1     -33.295   2.849   8.310  0.00  0.00    +0.000 A 
ATOM     10  C   UNL     1     -34.246   3.865   8.163  0.00  0.00    +0.000 A 
ATOM     11  N   UNL     1     -33.881   5.210   8.424  0.00  0.00    +0.000 N 
ATOM     12  C   UNL     1     -34.873   6.178   7.943  0.00  0.00    +0.000 C 
ATOM     13  C   UNL     1     -36.213   5.804   8.718  0.00  0.00    +0.000 C 
ATOM     14  C   UNL     1     -37.427   6.704   8.480  0.00  0.00    +0.000 C 
ATOM     15  C   UNL     1     -37.729   6.349   7.056  0.00  0.00    +0.000 C 
ATOM     16  C   UNL     1     -37.318   5.096   6.809  0.00  0.00    +0.000 C 
ATOM     17  C   UNL     1     -36.703   4.498   8.070  0.00  0.00    +0.000 C 
ATOM     18  C   UNL     1     -35.597   3.481   7.953  0.00  0.00    +0.000 A 
ATOM     19  C   UNL     1     -35.933   2.109   7.817  0.00  0.00    +0.000 A 
ATOM     20  H   UNL     1     -32.926   5.416   8.153  0.00  0.00    +0.000 HD
BRANCH   7  28
ATOM     21  C   UNL     1     -33.739  -4.768   6.760  0.00  0.00    +0.000 A 
ATOM     22  C   UNL     1     -34.403  -5.376   7.817  0.00  0.00    +0.000 A 
ATOM     23  C   UNL     1     -35.036  -4.587   8.773  0.00  0.00    +0.000 A 
ATOM     24  C   UNL     1     -35.043  -3.184   8.666  0.00  0.00    +0.000 A 
ATOM     25  C   UNL     1     -34.367  -2.561   7.615  0.00  0.00    +0.000 A 
ATOM     26  C   UNL     1     -33.697  -3.374   6.673  0.00  0.00    +0.000 A 
ATOM     27  N   UNL     1     -34.189  -1.175   7.586  0.00  0.00    +0.000 N 
ATOM     28  C   UNL     1     -35.350  -0.392   8.027  0.00  0.00    +0.000 C 
ATOM     29  C   UNL     1     -35.886  -0.842   9.395  0.00  0.00    +0.000 C 
ATOM     30  C   UNL     1     -37.412  -0.671   9.487  0.00  0.00    +0.000 C 
ATOM     31  C   UNL     1     -37.829  -1.755  10.440  0.00  0.00    +0.000 C 
ATOM     32  C   UNL     1     -36.989  -2.795  10.291  0.00  0.00    +0.000 C 
ATOM     33  C   UNL     1     -35.638  -2.327   9.751  0.00  0.00    +0.000 C 
ATOM     34  H   UNL     1     -33.866  -0.858   6.676  0.00  0.00    +0.000 HD
ENDBRANCH   7  28
ENDBRANCH   1  12
BRANCH   6  35
ATOM     35  C   UNL     1     -33.866   7.630  10.641  0.00  0.00    +0.000 C 
ATOM     36  N   UNL     1     -35.231   7.174  10.951  0.00  0.00    +0.000 N 
ATOM     37  C   UNL     1     -35.486   6.352  12.045  0.00  0.00    +0.000 A 
ATOM     38  C   UNL     1     -36.789   6.154  12.522  0.00  0.00    +0.000 A 
ATOM     39  C   UNL     1     -37.064   5.273  13.583  0.00  0.00    +0.000 A 
ATOM     40  C   UNL     1     -36.037   4.539  14.189  0.00  0.00    +0.000 A 
ATOM     41  C   UNL     1     -34.739   4.733  13.709  0.00  0.00    +0.000 A 
ATOM     42  C   UNL     1     -34.458   5.623  12.651  0.00  0.00    +0.000 A 
ATOM     43  C   UNL     1     -33.060   5.687  12.121  0.00  0.00    +0.000 C 
ATOM     44  C   UNL     1     -32.057   6.418  12.969  0.00  0.00    +0.000 C 
ATOM     45  C   UNL     1     -31.127   6.990  12.194  0.00  0.00    +0.000 C 
ATOM     46  C   UNL     1     -31.425   6.755  10.739  0.00  0.00    +0.000 C 
ATOM     47  C   UNL     1     -32.913   6.391  10.760  0.00  0.00    +0.000 C 
ATOM     48  H   UNL     1     -35.999   7.698  10.547  0.00  0.00    +0.000 HD
BRANCH  40  49
ATOM     49  C   UNL     1     -36.275   3.562  15.323  0.00  0.00    +0.000 C 
ATOM     50  N   UNL     1     -36.791   4.299  16.479  0.00  0.00    +0.000 N 
ATOM     51  C   UNL     1     -37.019   3.517  17.624  0.00  0.00    +0.000 A 
ATOM     52  C   UNL     1     -37.127   4.147  18.871  0.00  0.00    +0.000 A 
ATOM     53  C   UNL     1     -37.460   3.422  20.019  0.00  0.00    +0.000 A 
ATOM     54  C   UNL     1     -37.708   2.057  19.930  0.00  0.00    +0.000 A 
ATOM     55  C   UNL     1     -37.633   1.420  18.693  0.00  0.00    +0.000 A 
ATOM     56  C   UNL     1     -37.308   2.144  17.532  0.00  0.00    +0.000 A 
ATOM     57  C   UNL     1     -37.346   1.451  16.196  0.00  0.00    +0.000 C 
ATOM     58  C   UNL     1     -36.210   0.497  15.917  0.00  0.00    +0.000 C 
ATOM     59  C   UNL     1     -35.885   0.509  14.618  0.00  0.00    +0.000 C 
ATOM     60  C   UNL     1     -36.730   1.488  13.863  0.00  0.00    +0.000 C 
ATOM     61  C   UNL     1     -37.249   2.404  14.984  0.00  0.00    +0.000 C 
ATOM     62  H   UNL     1     -36.230   5.122  16.688  0.00  0.00    +0.000 HD
ENDBRANCH  40  49
ENDBRANCH   6  35
TORSDOF 4
ENDMDL
MODEL 3
REMARK VINA RESULT:      -5.3      1.414      1.554
REMARK  Name = 
REMARK  4 active torsions:
REMARK  status: ('A' for Active; 'I' for Inactive)
REMARK    1  A    between atoms: C_8  and  C_9
REMARK    2  A    between atoms: C_14  and  C_15
REMARK    3  A    between atoms: C_20  and  C_21
REMARK    4  A    between atoms: C_26  and  C_27
REMARK                            x       y       z     vdW  Elec       q    Type
REMARK                         _______ _______ _______ _____ _____    ______ ____
ROOT
ATOM      1  C   UNL     1     -34.253   7.322   7.977  0.00  0.00    +0.000 A 
ATOM      2  C   UNL     1     -34.057   7.989   6.743  0.00  0.00    +0.000 A 
ATOM      3  C   UNL     1     -33.382   9.205   6.658  0.00  0.00    +0.000 A 
ATOM      4  C   UNL     1     -32.928   9.822   7.811  0.00  0.00    +0.000 A 
ATOM      5  C   UNL     1     -33.165   9.234   9.051  0.00  0.00    +0.000 A 
ATOM      6  C   UNL     1     -33.830   7.985   9.179  0.00  0.00    +0.000 A 
ENDROOT
BRANCH   1  12
ATOM      7  C   UNL     1     -35.020   0.815   8.157  0.00  0.00    +0.000 A 
ATOM      8  C   UNL     1     -33.706   1.191   8.476  0.00  0.00    +0.000 A 
ATOM      9  C   UNL     1     -33.330   2.542   8.548  0.00  0.00    +0.000 A 
ATOM     10  C   UNL     1     -34.239   3.573   8.287  0.00  0.00    +0.000 A 
ATOM     11  N   UNL     1     -33.857   4.918   8.517  0.00  0.00    +0.000 N 
ATOM     12  C   UNL     1     -34.784   5.888   7.921  0.00  0.00    +0.000 C 
ATOM     13  C   UNL     1     -36.187   5.582   8.609  0.00  0.00    +0.000 C 
ATOM     14  C   UNL     1     -37.355   6.499   8.242  0.00  0.00    +0.000 C 
ATOM     15  C   UNL     1     -37.561   6.088   6.816  0.00  0.00    +0.000 C 
ATOM     16  C   UNL     1     -37.167   4.815   6.655  0.00  0.00    +0.000 C 
ATOM     17  C   UNL     1     -36.664   4.260   7.983  0.00  0.00    +0.000 C 
ATOM     18  C   UNL     1     -35.581   3.212   7.994  0.00  0.00    +0.000 A 
ATOM     19  C   UNL     1     -35.943   1.844   7.892  0.00  0.00    +0.000 A 
ATOM     20  H   UNL     1     -32.880   5.089   8.309  0.00  0.00    +0.000 HD
BRANCH   7  28
ATOM     21  C   UNL     1     -34.073  -5.091   6.904  0.00  0.00    +0.000 A 
ATOM     22  C   UNL     1     -34.682  -5.672   8.008  0.00  0.00    +0.000 A 
ATOM     23  C   UNL     1     -35.221  -4.859   9.001  0.00  0.00    +0.000 A 
ATOM     24  C   UNL     1     -35.188  -3.457   8.886  0.00  0.00    +0.000 A 
ATOM     25  C   UNL     1     -34.567  -2.861   7.787  0.00  0.00    +0.000 A 
ATOM     26  C   UNL     1     -33.991  -3.699   6.806  0.00  0.00    +0.000 A 
ATOM     27  N   UNL     1     -34.345  -1.482   7.737  0.00  0.00    +0.000 N 
ATOM     28  C   UNL     1     -35.447  -0.659   8.252  0.00  0.00    +0.000 C 
ATOM     29  C   UNL     1     -35.901  -1.085   9.657  0.00  0.00    +0.000 C 
ATOM     30  C   UNL     1     -37.411  -0.862   9.852  0.00  0.00    +0.000 C 
ATOM     31  C   UNL     1     -37.796  -1.928  10.839  0.00  0.00    +0.000 C 
ATOM     32  C   UNL     1     -37.004  -2.997  10.639  0.00  0.00    +0.000 C 
ATOM     33  C   UNL     1     -35.679  -2.576  10.004  0.00  0.00    +0.000 C 
ATOM     34  H   UNL     1     -34.075  -1.179   6.805  0.00  0.00    +0.000 HD
ENDBRANCH   7  28
ENDBRANCH   1  12
BRANCH   6  35
ATOM     35  C   UNL     1     -34.001   7.458  10.627  0.00  0.00    +0.000 C 
ATOM     36  N   UNL     1     -35.394   7.020  10.813  0.00  0.00    +0.000 N 
ATOM     37  C   UNL     1     -35.769   6.258  11.916  0.00  0.00    +0.000 A 
ATOM     38  C   UNL     1     -37.117   6.086  12.260  0.00  0.00    +0.000 A 
ATOM     39  C   UNL     1     -37.510   5.264  13.331  0.00  0.00    +0.000 A 
ATOM     40  C   UNL     1     -36.557   4.564  14.083  0.00  0.00    +0.000 A 
ATOM     41  C   UNL     1     -35.214   4.731  13.735  0.00  0.00    +0.000 A 
ATOM     42  C   UNL     1     -34.817   5.562  12.667  0.00  0.00    +0.000 A 
ATOM     43  C   UNL     1     -33.370   5.598  12.287  0.00  0.00    +0.000 C 
ATOM     44  C   UNL     1     -32.459   6.373  13.198  0.00  0.00    +0.000 C 
ATOM     45  C   UNL     1     -31.448   6.902  12.498  0.00  0.00    +0.000 C 
ATOM     46  C   UNL     1     -31.589   6.589  11.034  0.00  0.00    +0.000 C 
ATOM     47  C   UNL     1     -33.074   6.227  10.914  0.00  0.00    +0.000 C 
ATOM     48  H   UNL     1     -36.111   7.520  10.301  0.00  0.00    +0.000 HD
BRANCH  40  49
ATOM     49  C   UNL     1     -36.921   3.649  15.236  0.00  0.00    +0.000 C 
ATOM     50  N   UNL     1     -36.771   2.258  14.799  0.00  0.00    +0.000 N 
ATOM     51  C   UNL     1     -37.119   1.296  15.762  0.00  0.00    +0.000 A 
ATOM     52  C   UNL     1     -37.393  -0.015  15.351  0.00  0.00    +0.000 A 
ATOM     53  C   UNL     1     -37.636  -1.027  16.283  0.00  0.00    +0.000 A 
ATOM     54  C   UNL     1     -37.588  -0.744  17.644  0.00  0.00    +0.000 A 
ATOM     55  C   UNL     1     -37.289   0.547  18.071  0.00  0.00    +0.000 A 
ATOM     56  C   UNL     1     -37.034   1.570  17.139  0.00  0.00    +0.000 A 
ATOM     57  C   UNL     1     -36.602   2.926  17.632  0.00  0.00    +0.000 C 
ATOM     58  C   UNL     1     -37.683   3.771  18.262  0.00  0.00    +0.000 C 
ATOM     59  C   UNL     1     -37.486   5.070  17.998  0.00  0.00    +0.000 C 
ATOM     60  C   UNL     1     -36.277   5.265  17.136  0.00  0.00    +0.000 C 
ATOM     61  C   UNL     1     -36.084   3.868  16.523  0.00  0.00    +0.000 C 
ATOM     62  H   UNL     1     -37.234   2.087  13.909  0.00  0.00    +0.000 HD
ENDBRANCH  40  49
ENDBRANCH   6  35
TORSDOF 4
ENDMDL
