MODEL 1
REMARK VINA RESULT:      -6.9      0.000      0.000
REMARK  Name = 
REMARK  9 active torsions:
REMARK  status: ('A' for Active; 'I' for Inactive)
REMARK    1  A    between atoms: C_1  and  C_2
REMARK    2  A    between atoms: C_2  and  S_3
REMARK    3  A    between atoms: C_2  and  C_4
REMARK    4  A    between atoms: C_6  and  O_7
REMARK    5  A    between atoms: C_8  and  C_9
REMARK    6  A    between atoms: C_10  and  C_11
REMARK    7  A    between atoms: C_15  and  N_16
REMARK    8  A    between atoms: N_16  and  C_17
REMARK    9  A    between atoms: C_17  and  C_18
REMARK                            x       y       z     vdW  Elec       q    Type
REMARK                         _______ _______ _______ _____ _____    ______ ____
ROOT
ATOM      1  C   UNL     1       8.470  40.128  35.068  0.00  0.00    +0.000 A 
ATOM      2  C   UNL     1       8.372  41.529  35.270  0.00  0.00    +0.000 A 
ATOM      3  C   UNL     1       9.076  42.390  34.437  0.00  0.00    +0.000 A 
ATOM      4  C   UNL     1       9.984  41.930  33.479  0.00  0.00    +0.000 A 
ATOM      5  C   UNL     1      10.211  40.570  33.317  0.00  0.00    +0.000 A 
ATOM      6  C   UNL     1       9.427  39.697  34.097  0.00  0.00    +0.000 A 
ENDROOT
BRANCH   1  10
ATOM      7  C   UNL     1       6.976  36.684  35.455  0.00  0.00    +0.000 C 
ATOM      8  C   UNL     1       7.447  36.924  36.899  0.00  0.00    +0.000 C 
ATOM      9  C   UNL     1       8.185  38.263  36.907  0.00  0.00    +0.000 C 
ATOM     10  C   UNL     1       7.594  39.088  35.744  0.00  0.00    +0.000 C 
ATOM     11  C   UNL     1       6.985  38.055  34.754  0.00  0.00    +0.000 C 
BRANCH   7  13
ATOM     12  C   UNL     1       5.855  34.383  35.318  0.00  0.00    +0.000 C 
ATOM     13  C   UNL     1       5.643  35.901  35.317  0.00  0.00    +0.000 C 
BRANCH  13  14
ATOM     14  S   UNL     1       4.392  36.325  36.593  0.00  0.00    +0.000 S 
ATOM     15  H   UNL     1       4.057  35.074  36.937  0.00  0.00    +0.000 HD
ENDBRANCH  13  14
ENDBRANCH   7  13
BRANCH   9  16
ATOM     16  O   UNL     1       9.584  38.019  36.841  0.00  0.00    +0.000 OA
ATOM     17  H   UNL     1       9.939  37.947  37.737  0.00  0.00    +0.000 HD
ENDBRANCH   9  16
ENDBRANCH   1  10
BRANCH   2  18
ATOM     18  C   UNL     1       7.569  42.270  36.287  0.00  0.00    +0.000 C 
ATOM     19  S   UNL     1       8.098  43.333  37.463  0.00  0.00    +0.000 S 
ENDBRANCH   2  18
BRANCH   5  20
ATOM     20  N   UNL     1      11.249  40.085  32.530  0.00  0.00    +0.000 N 
ATOM     21  H   UNL     1      11.540  39.126  32.699  0.00  0.00    +0.000 HD
BRANCH  20  22
ATOM     22  C   UNL     1      11.295  40.477  31.124  0.00  0.00    +0.000 C 
BRANCH  22  23
ATOM     23  C   UNL     1      10.507  39.662  30.157  0.00  0.00    +0.000 A 
ATOM     24  C   UNL     1      11.053  38.894  29.142  0.00  0.00    +0.000 A 
ATOM     25  N   UNL     1      10.021  38.138  28.652  0.00  0.00    +0.000 N 
ATOM     26  C   UNL     1       8.894  38.911  28.781  0.00  0.00    +0.000 A 
ATOM     27  C   UNL     1       7.769  39.034  27.971  0.00  0.00    +0.000 A 
ATOM     28  C   UNL     1       6.772  39.888  28.437  0.00  0.00    +0.000 A 
ATOM     29  C   UNL     1       6.838  40.443  29.720  0.00  0.00    +0.000 A 
ATOM     30  C   UNL     1       7.985  40.300  30.514  0.00  0.00    +0.000 A 
ATOM     31  C   UNL     1       9.088  39.640  29.950  0.00  0.00    +0.000 A 
ATOM     32  H   UNL     1       9.991  37.136  28.792  0.00  0.00    +0.000 HD
ENDBRANCH  22  23
ENDBRANCH  20  22
ENDBRANCH   5  20
TORSDOF 8
ENDMDL
MODEL 2
REMARK VINA RESULT:      -6.7      4.810      7.217
REMARK  Name = 
REMARK  9 active torsions:
REMARK  status: ('A' for Active; 'I' for Inactive)
REMARK    1  A    between atoms: C_1  and  C_2
REMARK    2  A    between atoms: C_2  and  S_3
REMARK    3  A    between atoms: C_2  and  C_4
REMARK    4  A    between atoms: C_6  and  O_7
REMARK    5  A    between atoms: C_8  and  C_9
REMARK    6  A    between atoms: C_10  and  C_11
REMARK    7  A    between atoms: C_15  and  N_16
REMARK    8  A    between atoms: N_16  and  C_17
REMARK    9  A    between atoms: C_17  and  C_18
REMARK                            x       y       z     vdW  Elec       q    Type
REMARK                         _______ _______ _______ _____ _____    ______ ____
ROOT
ATOM      1  C   UNL     1       9.705  39.981  30.369  0.00  0.00    +0.000 A 
ATOM      2  C   UNL     1      10.955  39.311  30.362  0.00  0.00    +0.000 A 
ATOM      3  C   UNL     1      11.761  39.355  31.494  0.00  0.00    +0.000 A 
ATOM      4  C   UNL     1      11.449  40.144  32.605  0.00  0.00    +0.000 A 
ATOM      5  C   UNL     1      10.296  40.917  32.620  0.00  0.00    +0.000 A 
ATOM      6  C   UNL     1       9.434  40.797  31.512  0.00  0.00    +0.000 A 
ENDROOT
BRANCH   1  10
ATOM      7  C   UNL     1       6.317  40.655  28.850  0.00  0.00    +0.000 C 
ATOM      8  C   UNL     1       7.206  40.918  27.622  0.00  0.00    +0.000 C 
ATOM      9  C   UNL     1       8.656  40.787  28.091  0.00  0.00    +0.000 C 
ATOM     10  C   UNL     1       8.632  39.834  29.304  0.00  0.00    +0.000 C 
ATOM     11  C   UNL     1       7.186  39.899  29.871  0.00  0.00    +0.000 C 
BRANCH   7  13
ATOM     12  C   UNL     1       4.092  40.816  27.587  0.00  0.00    +0.000 C 
ATOM     13  C   UNL     1       4.952  39.983  28.544  0.00  0.00    +0.000 C 
BRANCH  13  14
ATOM     14  S   UNL     1       5.092  38.276  27.882  0.00  0.00    +0.000 S 
ATOM     15  H   UNL     1       5.226  38.597  26.587  0.00  0.00    +0.000 HD
ENDBRANCH  13  14
ENDBRANCH   7  13
BRANCH   9  16
ATOM     16  O   UNL     1       9.180  42.085  28.336  0.00  0.00    +0.000 OA
ATOM     17  H   UNL     1       9.655  42.393  27.552  0.00  0.00    +0.000 HD
ENDBRANCH   9  16
ENDBRANCH   1  10
BRANCH   2  18
ATOM     18  C   UNL     1      11.572  38.499  29.271  0.00  0.00    +0.000 C 
ATOM     19  S   UNL     1      13.078  37.775  29.232  0.00  0.00    +0.000 S 
ENDBRANCH   2  18
BRANCH   5  20
ATOM     20  N   UNL     1      10.058  41.866  33.607  0.00  0.00    +0.000 N 
ATOM     21  H   UNL     1      10.835  42.088  34.224  0.00  0.00    +0.000 HD
BRANCH  20  22
ATOM     22  C   UNL     1       9.220  43.016  33.277  0.00  0.00    +0.000 C 
BRANCH  22  23
ATOM     23  C   UNL     1       9.908  44.295  32.946  0.00  0.00    +0.000 A 
ATOM     24  C   UNL     1       9.661  45.508  33.568  0.00  0.00    +0.000 A 
ATOM     25  N   UNL     1      10.651  46.353  33.141  0.00  0.00    +0.000 N 
ATOM     26  C   UNL     1      10.947  45.966  31.857  0.00  0.00    +0.000 A 
ATOM     27  C   UNL     1      11.310  46.708  30.738  0.00  0.00    +0.000 A 
ATOM     28  C   UNL     1      11.594  45.977  29.586  0.00  0.00    +0.000 A 
ATOM     29  C   UNL     1      11.672  44.580  29.620  0.00  0.00    +0.000 A 
ATOM     30  C   UNL     1      11.303  43.859  30.765  0.00  0.00    +0.000 A 
ATOM     31  C   UNL     1      10.786  44.584  31.850  0.00  0.00    +0.000 A 
ATOM     32  H   UNL     1      11.372  46.679  33.772  0.00  0.00    +0.000 HD
ENDBRANCH  22  23
ENDBRANCH  20  22
ENDBRANCH   5  20
TORSDOF 8
ENDMDL
MODEL 3
REMARK VINA RESULT:      -6.1      4.520      7.736
REMARK  Name = 
REMARK  9 active torsions:
REMARK  status: ('A' for Active; 'I' for Inactive)
REMARK    1  A    between atoms: C_1  and  C_2
REMARK    2  A    between atoms: C_2  and  S_3
REMARK    3  A    between atoms: C_2  and  C_4
REMARK    4  A    between atoms: C_6  and  O_7
REMARK    5  A    between atoms: C_8  and  C_9
REMARK    6  A    between atoms: C_10  and  C_11
REMARK    7  A    between atoms: C_15  and  N_16
REMARK    8  A    between atoms: N_16  and  C_17
REMARK    9  A    between atoms: C_17  and  C_18
REMARK                            x       y       z     vdW  Elec       q    Type
REMARK                         _______ _______ _______ _____ _____    ______ ____
ROOT
ATOM      1  C   UNL     1       8.988  40.315  30.380  0.00  0.00    +0.000 A 
ATOM      2  C   UNL     1      10.304  39.896  30.700  0.00  0.00    +0.000 A 
ATOM      3  C   UNL     1      10.711  39.876  32.029  0.00  0.00    +0.000 A 
ATOM      4  C   UNL     1       9.915  40.374  33.064  0.00  0.00    +0.000 A 
ATOM      5  C   UNL     1       8.662  40.908  32.795  0.00  0.00    +0.000 A 
ATOM      6  C   UNL     1       8.214  40.841  31.461  0.00  0.00    +0.000 A 
ENDROOT
BRANCH   1  10
ATOM      7  C   UNL     1       6.069  40.388  27.989  0.00  0.00    +0.000 C 
ATOM      8  C   UNL     1       7.075  41.235  27.192  0.00  0.00    +0.000 C 
ATOM      9  C   UNL     1       8.312  41.400  28.077  0.00  0.00    +0.000 C 
ATOM     10  C   UNL     1       8.337  40.176  29.015  0.00  0.00    +0.000 C 
ATOM     11  C   UNL     1       6.873  39.656  29.078  0.00  0.00    +0.000 C 
BRANCH   7  13
ATOM     12  C   UNL     1       4.518  38.348  27.962  0.00  0.00    +0.000 C 
ATOM     13  C   UNL     1       5.159  39.467  27.133  0.00  0.00    +0.000 C 
BRANCH  13  14
ATOM     14  S   UNL     1       3.838  40.360  26.222  0.00  0.00    +0.000 S 
ATOM     15  H   UNL     1       4.488  41.520  26.055  0.00  0.00    +0.000 HD
ENDBRANCH  13  14
ENDBRANCH   7  13
BRANCH   9  16
ATOM     16  O   UNL     1       8.255  42.668  28.718  0.00  0.00    +0.000 OA
ATOM     17  H   UNL     1       7.469  43.144  28.417  0.00  0.00    +0.000 HD
ENDBRANCH   9  16
ENDBRANCH   1  10
BRANCH   2  18
ATOM     18  C   UNL     1      11.383  39.427  29.780  0.00  0.00    +0.000 C 
ATOM     19  S   UNL     1      12.532  38.241  30.038  0.00  0.00    +0.000 S 
ENDBRANCH   2  18
BRANCH   5  20
ATOM     20  N   UNL     1       7.934  41.598  33.757  0.00  0.00    +0.000 N 
ATOM     21  H   UNL     1       6.926  41.469  33.747  0.00  0.00    +0.000 HD
BRANCH  20  22
ATOM     22  C   UNL     1       8.498  41.722  35.099  0.00  0.00    +0.000 C 
BRANCH  22  23
ATOM     23  C   UNL     1       8.934  43.077  35.538  0.00  0.00    +0.000 A 
ATOM     24  C   UNL     1       8.137  43.980  36.223  0.00  0.00    +0.000 A 
ATOM     25  N   UNL     1       8.977  44.981  36.633  0.00  0.00    +0.000 N 
ATOM     26  C   UNL     1       9.941  45.085  35.661  0.00  0.00    +0.000 A 
ATOM     27  C   UNL     1      10.614  46.191  35.153  0.00  0.00    +0.000 A 
ATOM     28  C   UNL     1      11.585  45.926  34.190  0.00  0.00    +0.000 A 
ATOM     29  C   UNL     1      11.967  44.612  33.893  0.00  0.00    +0.000 A 
ATOM     30  C   UNL     1      11.271  43.517  34.423  0.00  0.00    +0.000 A 
ATOM     31  C   UNL     1      10.137  43.785  35.206  0.00  0.00    +0.000 A 
ATOM     32  H   UNL     1       9.200  45.112  37.612  0.00  0.00    +0.000 HD
ENDBRANCH  22  23
ENDBRANCH  20  22
ENDBRANCH   5  20
TORSDOF 8
ENDMDL
MODEL 4
REMARK VINA RESULT:      -6.0      5.157      6.617
REMARK  Name = 
REMARK  9 active torsions:
REMARK  status: ('A' for Active; 'I' for Inactive)
REMARK    1  A    between atoms: C_1  and  C_2
REMARK    2  A    between atoms: C_2  and  S_3
REMARK    3  A    between atoms: C_2  and  C_4
REMARK    4  A    between atoms: C_6  and  O_7
REMARK    5  A    between atoms: C_8  and  C_9
REMARK    6  A    between atoms: C_10  and  C_11
REMARK    7  A    between atoms: C_15  and  N_16
REMARK    8  A    between atoms: N_16  and  C_17
REMARK    9  A    between atoms: C_17  and  C_18
REMARK                            x       y       z     vdW  Elec       q    Type
REMARK                         _______ _______ _______ _____ _____    ______ ____
ROOT
ATOM      1  C   UNL     1       9.397  40.726  30.585  0.00  0.00    +0.000 A 
ATOM      2  C   UNL     1      10.678  40.237  30.948  0.00  0.00    +0.000 A 
ATOM      3  C   UNL     1      11.425  40.919  31.902  0.00  0.00    +0.000 A 
ATOM      4  C   UNL     1      11.020  42.148  32.433  0.00  0.00    +0.000 A 
ATOM      5  C   UNL     1       9.831  42.735  32.023  0.00  0.00    +0.000 A 
ATOM      6  C   UNL     1       9.031  41.997  31.128  0.00  0.00    +0.000 A 
ENDROOT
BRANCH   1  10
ATOM      7  C   UNL     1       6.095  40.321  28.804  0.00  0.00    +0.000 C 
ATOM      8  C   UNL     1       7.048  39.889  27.678  0.00  0.00    +0.000 C 
ATOM      9  C   UNL     1       8.471  40.093  28.201  0.00  0.00    +0.000 C 
ATOM     10  C   UNL     1       8.386  39.975  29.738  0.00  0.00    +0.000 C 
ATOM     11  C   UNL     1       6.910  40.291  30.110  0.00  0.00    +0.000 C 
BRANCH   7  13
ATOM     12  C   UNL     1       3.783  40.136  29.897  0.00  0.00    +0.000 C 
ATOM     13  C   UNL     1       4.753  39.544  28.868  0.00  0.00    +0.000 C 
BRANCH  13  14
ATOM     14  S   UNL     1       3.891  39.409  27.252  0.00  0.00    +0.000 S 
ATOM     15  H   UNL     1       3.182  38.303  27.519  0.00  0.00    +0.000 HD
ENDBRANCH  13  14
ENDBRANCH   7  13
BRANCH   9  16
ATOM     16  O   UNL     1       8.973  41.326  27.705  0.00  0.00    +0.000 OA
ATOM     17  H   UNL     1       9.680  41.152  27.068  0.00  0.00    +0.000 HD
ENDBRANCH   9  16
ENDBRANCH   1  10
BRANCH   2  18
ATOM     18  C   UNL     1      11.386  39.020  30.452  0.00  0.00    +0.000 C 
ATOM     19  S   UNL     1      12.765  38.295  31.058  0.00  0.00    +0.000 S 
ENDBRANCH   2  18
BRANCH   5  20
ATOM     20  N   UNL     1       9.499  44.041  32.365  0.00  0.00    +0.000 N 
ATOM     21  H   UNL     1       9.173  44.195  33.315  0.00  0.00    +0.000 HD
BRANCH  20  22
ATOM     22  C   UNL     1      10.322  45.127  31.839  0.00  0.00    +0.000 C 
BRANCH  22  23
ATOM     23  C   UNL     1      10.715  45.058  30.404  0.00  0.00    +0.000 A 
ATOM     24  C   UNL     1      12.007  45.219  29.930  0.00  0.00    +0.000 A 
ATOM     25  N   UNL     1      11.968  44.851  28.612  0.00  0.00    +0.000 N 
ATOM     26  C   UNL     1      10.721  45.205  28.159  0.00  0.00    +0.000 A 
ATOM     27  C   UNL     1      10.297  45.689  26.926  0.00  0.00    +0.000 A 
ATOM     28  C   UNL     1       8.926  45.898  26.791  0.00  0.00    +0.000 A 
ATOM     29  C   UNL     1       8.031  45.478  27.781  0.00  0.00    +0.000 A 
ATOM     30  C   UNL     1       8.488  44.990  29.014  0.00  0.00    +0.000 A 
ATOM     31  C   UNL     1       9.873  45.004  29.244  0.00  0.00    +0.000 A 
ATOM     32  H   UNL     1      12.427  44.010  28.287  0.00  0.00    +0.000 HD
ENDBRANCH  22  23
ENDBRANCH  20  22
ENDBRANCH   5  20
TORSDOF 8
ENDMDL
MODEL 5
REMARK VINA RESULT:      -5.7      3.831      5.389
REMARK  Name = 
REMARK  9 active torsions:
REMARK  status: ('A' for Active; 'I' for Inactive)
REMARK    1  A    between atoms: C_1  and  C_2
REMARK    2  A    between atoms: C_2  and  S_3
REMARK    3  A    between atoms: C_2  and  C_4
REMARK    4  A    between atoms: C_6  and  O_7
REMARK    5  A    between atoms: C_8  and  C_9
REMARK    6  A    between atoms: C_10  and  C_11
REMARK    7  A    between atoms: C_15  and  N_16
REMARK    8  A    between atoms: N_16  and  C_17
REMARK    9  A    between atoms: C_17  and  C_18
REMARK                            x       y       z     vdW  Elec       q    Type
REMARK                         _______ _______ _______ _____ _____    ______ ____
ROOT
ATOM      1  C   UNL     1       9.591  42.441  34.618  0.00  0.00    +0.000 A 
ATOM      2  C   UNL     1      10.583  41.851  33.793  0.00  0.00    +0.000 A 
ATOM      3  C   UNL     1      11.790  42.511  33.597  0.00  0.00    +0.000 A 
ATOM      4  C   UNL     1      12.025  43.802  34.079  0.00  0.00    +0.000 A 
ATOM      5  C   UNL     1      11.044  44.478  34.791  0.00  0.00    +0.000 A 
ATOM      6  C   UNL     1       9.858  43.771  35.070  0.00  0.00    +0.000 A 
ENDROOT
BRANCH   1  10
ATOM      7  C   UNL     1       7.696  39.688  36.371  0.00  0.00    +0.000 C 
ATOM      8  C   UNL     1       7.009  40.913  36.998  0.00  0.00    +0.000 C 
ATOM      9  C   UNL     1       7.737  42.148  36.466  0.00  0.00    +0.000 C 
ATOM     10  C   UNL     1       8.332  41.743  35.101  0.00  0.00    +0.000 C 
ATOM     11  C   UNL     1       8.456  40.194  35.131  0.00  0.00    +0.000 C 
BRANCH   7  13
ATOM     12  C   UNL     1       6.210  38.469  34.676  0.00  0.00    +0.000 C 
ATOM     13  C   UNL     1       6.767  38.474  36.104  0.00  0.00    +0.000 C 
BRANCH  13  14
ATOM     14  S   UNL     1       7.548  36.847  36.440  0.00  0.00    +0.000 S 
ATOM     15  H   UNL     1       7.348  36.823  37.765  0.00  0.00    +0.000 HD
ENDBRANCH  13  14
ENDBRANCH   7  13
BRANCH   9  16
ATOM     16  O   UNL     1       8.673  42.587  37.441  0.00  0.00    +0.000 OA
ATOM     17  H   UNL     1       8.379  43.430  37.811  0.00  0.00    +0.000 HD
ENDBRANCH   9  16
ENDBRANCH   1  10
BRANCH   2  18
ATOM     18  C   UNL     1      10.540  40.543  33.074  0.00  0.00    +0.000 C 
ATOM     19  S   UNL     1      11.283  40.116  31.639  0.00  0.00    +0.000 S 
ENDBRANCH   2  18
BRANCH   5  20
ATOM     20  N   UNL     1      11.159  45.828  35.103  0.00  0.00    +0.000 N 
ATOM     21  H   UNL     1      11.765  46.066  35.884  0.00  0.00    +0.000 HD
BRANCH  20  22
ATOM     22  C   UNL     1      11.201  46.792  34.007  0.00  0.00    +0.000 C 
BRANCH  22  23
ATOM     23  C   UNL     1      10.258  46.584  32.873  0.00  0.00    +0.000 A 
ATOM     24  C   UNL     1       8.885  46.757  32.945  0.00  0.00    +0.000 A 
ATOM     25  N   UNL     1       8.435  46.698  31.654  0.00  0.00    +0.000 N 
ATOM     26  C   UNL     1       9.266  45.819  31.005  0.00  0.00    +0.000 A 
ATOM     27  C   UNL     1       9.013  44.888  30.002  0.00  0.00    +0.000 A 
ATOM     28  C   UNL     1      10.119  44.185  29.529  0.00  0.00    +0.000 A 
ATOM     29  C   UNL     1      11.416  44.529  29.924  0.00  0.00    +0.000 A 
ATOM     30  C   UNL     1      11.640  45.474  30.936  0.00  0.00    +0.000 A 
ATOM     31  C   UNL     1      10.516  46.010  31.585  0.00  0.00    +0.000 A 
ATOM     32  H   UNL     1       8.068  47.518  31.186  0.00  0.00    +0.000 HD
ENDBRANCH  22  23
ENDBRANCH  20  22
ENDBRANCH   5  20
TORSDOF 8
ENDMDL
MODEL 6
REMARK VINA RESULT:      -5.7      5.288      7.357
REMARK  Name = 
REMARK  9 active torsions:
REMARK  status: ('A' for Active; 'I' for Inactive)
REMARK    1  A    between atoms: C_1  and  C_2
REMARK    2  A    between atoms: C_2  and  S_3
REMARK    3  A    between atoms: C_2  and  C_4
REMARK    4  A    between atoms: C_6  and  O_7
REMARK    5  A    between atoms: C_8  and  C_9
REMARK    6  A    between atoms: C_10  and  C_11
REMARK    7  A    between atoms: C_15  and  N_16
REMARK    8  A    between atoms: N_16  and  C_17
REMARK    9  A    between atoms: C_17  and  C_18
REMARK                            x       y       z     vdW  Elec       q    Type
REMARK                         _______ _______ _______ _____ _____    ______ ____
ROOT
ATOM      1  C   UNL     1       9.294  41.916  31.203  0.00  0.00    +0.000 A 
ATOM      2  C   UNL     1      10.560  41.331  31.462  0.00  0.00    +0.000 A 
ATOM      3  C   UNL     1      11.313  41.780  32.541  0.00  0.00    +0.000 A 
ATOM      4  C   UNL     1      10.931  42.880  33.315  0.00  0.00    +0.000 A 
ATOM      5  C   UNL     1       9.760  43.569  33.032  0.00  0.00    +0.000 A 
ATOM      6  C   UNL     1       8.952  43.054  31.999  0.00  0.00    +0.000 A 
ENDROOT
BRANCH   1  10
ATOM      7  C   UNL     1       6.160  42.131  29.113  0.00  0.00    +0.000 C 
ATOM      8  C   UNL     1       7.148  41.637  28.044  0.00  0.00    +0.000 C 
ATOM      9  C   UNL     1       8.526  41.589  28.705  0.00  0.00    +0.000 C 
ATOM     10  C   UNL     1       8.274  41.383  30.213  0.00  0.00    +0.000 C 
ATOM     11  C   UNL     1       6.830  41.893  30.478  0.00  0.00    +0.000 C 
BRANCH   7  13
ATOM     12  C   UNL     1       3.978  42.101  27.768  0.00  0.00    +0.000 C 
ATOM     13  C   UNL     1       4.721  41.562  28.995  0.00  0.00    +0.000 C 
BRANCH  13  14
ATOM     14  S   UNL     1       4.643  39.728  28.976  0.00  0.00    +0.000 S 
ATOM     15  H   UNL     1       3.750  39.597  27.984  0.00  0.00    +0.000 HD
ENDBRANCH  13  14
ENDBRANCH   7  13
BRANCH   9  16
ATOM     16  O   UNL     1       9.247  42.764  28.355  0.00  0.00    +0.000 OA
ATOM     17  H   UNL     1       9.526  43.220  29.159  0.00  0.00    +0.000 HD
ENDBRANCH   9  16
ENDBRANCH   1  10
BRANCH   2  18
ATOM     18  C   UNL     1      11.245  40.228  30.726  0.00  0.00    +0.000 C 
ATOM     19  S   UNL     1      12.053  38.903  31.347  0.00  0.00    +0.000 S 
ENDBRANCH   2  18
BRANCH   5  20
ATOM     20  N   UNL     1       9.454  44.782  33.638  0.00  0.00    +0.000 N 
ATOM     21  H   UNL     1       8.979  44.737  34.536  0.00  0.00    +0.000 HD
BRANCH  20  22
ATOM     22  C   UNL     1      10.420  45.872  33.536  0.00  0.00    +0.000 C 
BRANCH  22  23
ATOM     23  C   UNL     1      10.475  46.624  32.251  0.00  0.00    +0.000 A 
ATOM     24  C   UNL     1       9.716  47.745  31.959  0.00  0.00    +0.000 A 
ATOM     25  N   UNL     1      10.233  48.252  30.797  0.00  0.00    +0.000 N 
ATOM     26  C   UNL     1      10.676  47.169  30.078  0.00  0.00    +0.000 A 
ATOM     27  C   UNL     1      10.680  46.917  28.710  0.00  0.00    +0.000 A 
ATOM     28  C   UNL     1      11.262  45.716  28.312  0.00  0.00    +0.000 A 
ATOM     29  C   UNL     1      11.949  44.909  29.226  0.00  0.00    +0.000 A 
ATOM     30  C   UNL     1      11.929  45.190  30.600  0.00  0.00    +0.000 A 
ATOM     31  C   UNL     1      11.140  46.269  31.031  0.00  0.00    +0.000 A 
ATOM     32  H   UNL     1      10.733  49.132  30.784  0.00  0.00    +0.000 HD
ENDBRANCH  22  23
ENDBRANCH  20  22
ENDBRANCH   5  20
TORSDOF 8
ENDMDL
MODEL 7
REMARK VINA RESULT:      -5.4      4.637      6.679
REMARK  Name = 
REMARK  9 active torsions:
REMARK  status: ('A' for Active; 'I' for Inactive)
REMARK    1  A    between atoms: C_1  and  C_2
REMARK    2  A    between atoms: C_2  and  S_3
REMARK    3  A    between atoms: C_2  and  C_4
REMARK    4  A    between atoms: C_6  and  O_7
REMARK    5  A    between atoms: C_8  and  C_9
REMARK    6  A    between atoms: C_10  and  C_11
REMARK    7  A    between atoms: C_15  and  N_16
REMARK    8  A    between atoms: N_16  and  C_17
REMARK    9  A    between atoms: C_17  and  C_18
REMARK                            x       y       z     vdW  Elec       q    Type
REMARK                         _______ _______ _______ _____ _____    ______ ____
ROOT
ATOM      1  C   UNL     1       9.050  42.707  32.632  0.00  0.00    +0.000 A 
ATOM      2  C   UNL     1      10.192  41.903  32.878  0.00  0.00    +0.000 A 
ATOM      3  C   UNL     1      11.145  42.332  33.794  0.00  0.00    +0.000 A 
ATOM      4  C   UNL     1      11.092  43.593  34.396  0.00  0.00    +0.000 A 
ATOM      5  C   UNL     1      10.060  44.473  34.100  0.00  0.00    +0.000 A 
ATOM      6  C   UNL     1       9.045  43.999  33.245  0.00  0.00    +0.000 A 
ENDROOT
BRANCH   1  10
ATOM      7  C   UNL     1       7.230  40.575  30.105  0.00  0.00    +0.000 C 
ATOM      8  C   UNL     1       6.244  40.477  31.282  0.00  0.00    +0.000 C 
ATOM      9  C   UNL     1       6.884  41.217  32.457  0.00  0.00    +0.000 C 
ATOM     10  C   UNL     1       7.830  42.269  31.841  0.00  0.00    +0.000 C 
ATOM     11  C   UNL     1       8.171  41.754  30.414  0.00  0.00    +0.000 C 
BRANCH   7  13
ATOM     12  C   UNL     1       7.476  41.307  27.661  0.00  0.00    +0.000 C 
ATOM     13  C   UNL     1       6.576  40.626  28.699  0.00  0.00    +0.000 C 
BRANCH  13  14
ATOM     14  S   UNL     1       6.064  38.985  28.053  0.00  0.00    +0.000 S 
ATOM     15  H   UNL     1       5.412  38.558  29.144  0.00  0.00    +0.000 HD
ENDBRANCH  13  14
ENDBRANCH   7  13
BRANCH   9  16
ATOM     16  O   UNL     1       7.497  40.268  33.321  0.00  0.00    +0.000 OA
ATOM     17  H   UNL     1       6.933  40.126  34.093  0.00  0.00    +0.000 HD
ENDBRANCH   9  16
ENDBRANCH   1  10
BRANCH   2  18
ATOM     18  C   UNL     1      10.543  40.578  32.288  0.00  0.00    +0.000 C 
ATOM     19  S   UNL     1      11.261  40.249  30.815  0.00  0.00    +0.000 S 
ENDBRANCH   2  18
BRANCH   5  20
ATOM     20  N   UNL     1      10.083  45.800  34.511  0.00  0.00    +0.000 N 
ATOM     21  H   UNL     1       9.965  45.973  35.506  0.00  0.00    +0.000 HD
BRANCH  20  22
ATOM     22  C   UNL     1      11.021  46.712  33.861  0.00  0.00    +0.000 C 
BRANCH  22  23
ATOM     23  C   UNL     1      10.785  47.032  32.425  0.00  0.00    +0.000 A 
ATOM     24  C   UNL     1      10.010  48.085  31.968  0.00  0.00    +0.000 A 
ATOM     25  N   UNL     1      10.246  48.163  30.622  0.00  0.00    +0.000 N 
ATOM     26  C   UNL     1      10.471  46.875  30.203  0.00  0.00    +0.000 A 
ATOM     27  C   UNL     1      10.137  46.224  29.020  0.00  0.00    +0.000 A 
ATOM     28  C   UNL     1      10.573  44.906  28.905  0.00  0.00    +0.000 A 
ATOM     29  C   UNL     1      11.437  44.346  29.852  0.00  0.00    +0.000 A 
ATOM     30  C   UNL     1      11.757  45.028  31.035  0.00  0.00    +0.000 A 
ATOM     31  C   UNL     1      11.126  46.261  31.266  0.00  0.00    +0.000 A 
ATOM     32  H   UNL     1      10.752  48.943  30.221  0.00  0.00    +0.000 HD
ENDBRANCH  22  23
ENDBRANCH  20  22
ENDBRANCH   5  20
TORSDOF 8
ENDMDL
MODEL 8
REMARK VINA RESULT:      -5.1      4.521      7.605
REMARK  Name = 
REMARK  9 active torsions:
REMARK  status: ('A' for Active; 'I' for Inactive)
REMARK    1  A    between atoms: C_1  and  C_2
REMARK    2  A    between atoms: C_2  and  S_3
REMARK    3  A    between atoms: C_2  and  C_4
REMARK    4  A    between atoms: C_6  and  O_7
REMARK    5  A    between atoms: C_8  and  C_9
REMARK    6  A    between atoms: C_10  and  C_11
REMARK    7  A    between atoms: C_15  and  N_16
REMARK    8  A    between atoms: N_16  and  C_17
REMARK    9  A    between atoms: C_17  and  C_18
REMARK                            x       y       z     vdW  Elec       q    Type
REMARK                         _______ _______ _______ _____ _____    ______ ____
ROOT
ATOM      1  C   UNL     1       9.105  41.774  30.633  0.00  0.00    +0.000 A 
ATOM      2  C   UNL     1      10.304  41.084  30.947  0.00  0.00    +0.000 A 
ATOM      3  C   UNL     1      11.222  41.668  31.812  0.00  0.00    +0.000 A 
ATOM      4  C   UNL     1      11.075  42.973  32.292  0.00  0.00    +0.000 A 
ATOM      5  C   UNL     1       9.979  43.741  31.921  0.00  0.00    +0.000 A 
ATOM      6  C   UNL     1       9.003  43.114  31.122  0.00  0.00    +0.000 A 
ENDROOT
BRANCH   1  10
ATOM      7  C   UNL     1       5.922  41.946  28.614  0.00  0.00    +0.000 C 
ATOM      8  C   UNL     1       6.701  40.918  27.778  0.00  0.00    +0.000 C 
ATOM      9  C   UNL     1       8.089  40.797  28.407  0.00  0.00    +0.000 C 
ATOM     10  C   UNL     1       7.923  41.173  29.895  0.00  0.00    +0.000 C 
ATOM     11  C   UNL     1       6.637  42.043  29.974  0.00  0.00    +0.000 C 
BRANCH   7  13
ATOM     12  C   UNL     1       3.665  42.033  27.402  0.00  0.00    +0.000 C 
ATOM     13  C   UNL     1       4.393  41.698  28.709  0.00  0.00    +0.000 C 
BRANCH  13  14
ATOM     14  S   UNL     1       3.943  39.991  29.216  0.00  0.00    +0.000 S 
ATOM     15  H   UNL     1       3.804  40.225  30.528  0.00  0.00    +0.000 HD
ENDBRANCH  13  14
ENDBRANCH   7  13
BRANCH   9  16
ATOM     16  O   UNL     1       9.002  41.598  27.668  0.00  0.00    +0.000 OA
ATOM     17  H   UNL     1       9.232  42.382  28.184  0.00  0.00    +0.000 HD
ENDBRANCH   9  16
ENDBRANCH   1  10
BRANCH   2  18
ATOM     18  C   UNL     1      10.755  39.739  30.482  0.00  0.00    +0.000 C 
ATOM     19  S   UNL     1      12.073  38.846  30.991  0.00  0.00    +0.000 S 
ENDBRANCH   2  18
BRANCH   5  20
ATOM     20  N   UNL     1       9.902  45.099  32.205  0.00  0.00    +0.000 N 
ATOM     21  H   UNL     1      10.275  45.734  31.503  0.00  0.00    +0.000 HD
BRANCH  20  22
ATOM     22  C   UNL     1       8.709  45.601  32.881  0.00  0.00    +0.000 C 
BRANCH  22  23
ATOM     23  C   UNL     1       8.573  45.316  34.337  0.00  0.00    +0.000 A 
ATOM     24  C   UNL     1       9.236  46.002  35.341  0.00  0.00    +0.000 A 
ATOM     25  N   UNL     1       8.659  45.592  36.514  0.00  0.00    +0.000 N 
ATOM     26  C   UNL     1       8.292  44.284  36.316  0.00  0.00    +0.000 A 
ATOM     27  C   UNL     1       8.284  43.193  37.179  0.00  0.00    +0.000 A 
ATOM     28  C   UNL     1       7.792  42.001  36.652  0.00  0.00    +0.000 A 
ATOM     29  C   UNL     1       7.187  41.965  35.391  0.00  0.00    +0.000 A 
ATOM     30  C   UNL     1       7.208  43.082  34.543  0.00  0.00    +0.000 A 
ATOM     31  C   UNL     1       7.916  44.214  34.978  0.00  0.00    +0.000 A 
ATOM     32  H   UNL     1       8.091  46.220  37.068  0.00  0.00    +0.000 HD
ENDBRANCH  22  23
ENDBRANCH  20  22
ENDBRANCH   5  20
TORSDOF 8
ENDMDL
MODEL 9
REMARK VINA RESULT:      -4.9      5.129      7.057
REMARK  Name = 
REMARK  9 active torsions:
REMARK  status: ('A' for Active; 'I' for Inactive)
REMARK    1  A    between atoms: C_1  and  C_2
REMARK    2  A    between atoms: C_2  and  S_3
REMARK    3  A    between atoms: C_2  and  C_4
REMARK    4  A    between atoms: C_6  and  O_7
REMARK    5  A    between atoms: C_8  and  C_9
REMARK    6  A    between atoms: C_10  and  C_11
REMARK    7  A    between atoms: C_15  and  N_16
REMARK    8  A    between atoms: N_16  and  C_17
REMARK    9  A    between atoms: C_17  and  C_18
REMARK                            x       y       z     vdW  Elec       q    Type
REMARK                         _______ _______ _______ _____ _____    ______ ____
ROOT
ATOM      1  C   UNL     1       9.005  41.393  30.266  0.00  0.00    +0.000 A 
ATOM      2  C   UNL     1      10.086  40.476  30.207  0.00  0.00    +0.000 A 
ATOM      3  C   UNL     1      11.113  40.569  31.138  0.00  0.00    +0.000 A 
ATOM      4  C   UNL     1      11.195  41.615  32.062  0.00  0.00    +0.000 A 
ATOM      5  C   UNL     1      10.227  42.610  32.088  0.00  0.00    +0.000 A 
ATOM      6  C   UNL     1       9.137  42.462  31.207  0.00  0.00    +0.000 A 
ENDROOT
BRANCH   1  10
ATOM      7  C   UNL     1       5.808  39.684  29.219  0.00  0.00    +0.000 C 
ATOM      8  C   UNL     1       5.267  41.098  29.488  0.00  0.00    +0.000 C 
ATOM      9  C   UNL     1       6.435  41.921  30.033  0.00  0.00    +0.000 C 
ATOM     10  C   UNL     1       7.718  41.274  29.470  0.00  0.00    +0.000 C 
ATOM     11  C   UNL     1       7.339  39.808  29.121  0.00  0.00    +0.000 C 
BRANCH   7  13
ATOM     12  C   UNL     1       5.681  37.513  27.862  0.00  0.00    +0.000 C 
ATOM     13  C   UNL     1       5.146  38.940  28.029  0.00  0.00    +0.000 C 
BRANCH  13  14
ATOM     14  S   UNL     1       3.313  38.879  28.112  0.00  0.00    +0.000 S 
ATOM     15  H   UNL     1       3.140  37.736  27.434  0.00  0.00    +0.000 HD
ENDBRANCH  13  14
ENDBRANCH   7  13
BRANCH   9  16
ATOM     16  O   UNL     1       6.342  41.973  31.451  0.00  0.00    +0.000 OA
ATOM     17  H   UNL     1       7.218  41.839  31.835  0.00  0.00    +0.000 HD
ENDBRANCH   9  16
ENDBRANCH   1  10
BRANCH   2  18
ATOM     18  C   UNL     1      10.298  39.345  29.255  0.00  0.00    +0.000 C 
ATOM     19  S   UNL     1      11.664  38.408  29.035  0.00  0.00    +0.000 S 
ENDBRANCH   2  18
BRANCH   5  20
ATOM     20  N   UNL     1      10.381  43.768  32.842  0.00  0.00    +0.000 N 
ATOM     21  H   UNL     1      10.150  43.703  33.830  0.00  0.00    +0.000 HD
BRANCH  20  22
ATOM     22  C   UNL     1      11.521  44.635  32.557  0.00  0.00    +0.000 C 
BRANCH  22  23
ATOM     23  C   UNL     1      11.292  45.796  31.651  0.00  0.00    +0.000 A 
ATOM     24  C   UNL     1      10.609  46.948  32.001  0.00  0.00    +0.000 A 
ATOM     25  N   UNL     1      10.829  47.835  30.981  0.00  0.00    +0.000 N 
ATOM     26  C   UNL     1      10.928  47.079  29.840  0.00  0.00    +0.000 A 
ATOM     27  C   UNL     1      10.517  47.331  28.534  0.00  0.00    +0.000 A 
ATOM     28  C   UNL     1      10.828  46.349  27.596  0.00  0.00    +0.000 A 
ATOM     29  C   UNL     1      11.652  45.268  27.929  0.00  0.00    +0.000 A 
ATOM     30  C   UNL     1      12.053  45.041  29.253  0.00  0.00    +0.000 A 
ATOM     31  C   UNL     1      11.542  45.897  30.242  0.00  0.00    +0.000 A 
ATOM     32  H   UNL     1      11.399  48.661  31.116  0.00  0.00    +0.000 HD
ENDBRANCH  22  23
ENDBRANCH  20  22
ENDBRANCH   5  20
TORSDOF 8
ENDMDL
