MODEL 1
REMARK VINA RESULT:      29.7      0.000      0.000
REMARK  Name = 
REMARK  4 active torsions:
REMARK  status: ('A' for Active; 'I' for Inactive)
REMARK    1  A    between atoms: C_8  and  C_9
REMARK    2  A    between atoms: C_14  and  C_15
REMARK    3  A    between atoms: C_20  and  C_21
REMARK    4  A    between atoms: C_26  and  C_27
REMARK                            x       y       z     vdW  Elec       q    Type
REMARK                         _______ _______ _______ _____ _____    ______ ____
ROOT
ATOM      1  C   UNL     1     -21.150  10.654  22.322  0.00  0.00    +0.000 A 
ATOM      2  C   UNL     1     -20.455  11.765  22.761  0.00  0.00    +0.000 A 
ATOM      3  C   UNL     1     -19.888  12.668  21.835  0.00  0.00    +0.000 A 
ATOM      4  C   UNL     1     -20.013  12.462  20.441  0.00  0.00    +0.000 A 
ATOM      5  N   UNL     1     -19.543  13.448  19.558  0.00  0.00    +0.000 N 
ATOM      6  C   UNL     1     -19.494  12.998  18.155  0.00  0.00    +0.000 C 
ATOM      7  C   UNL     1     -20.954  12.534  17.791  0.00  0.00    +0.000 C 
ATOM      8  C   UNL     1     -21.174  12.072  16.349  0.00  0.00    +0.000 C 
ATOM      9  C   UNL     1     -20.471  10.750  16.383  0.00  0.00    +0.000 C 
ATOM     10  C   UNL     1     -20.452  10.269  17.634  0.00  0.00    +0.000 C 
ATOM     11  C   UNL     1     -21.177  11.222  18.560  0.00  0.00    +0.000 C 
ATOM     12  C   UNL     1     -20.781  11.375  20.004  0.00  0.00    +0.000 A 
ATOM     13  C   UNL     1     -21.268  10.439  20.928  0.00  0.00    +0.000 A 
ATOM     14  H   UNL     1     -18.698  13.904  19.875  0.00  0.00    +0.000 HD
ENDROOT
BRANCH   1  20
ATOM     15  C   UNL     1     -23.676   5.341  25.117  0.00  0.00    +0.000 A 
ATOM     16  C   UNL     1     -23.301   5.104  23.787  0.00  0.00    +0.000 A 
ATOM     17  C   UNL     1     -22.710   6.114  23.020  0.00  0.00    +0.000 A 
ATOM     18  C   UNL     1     -22.503   7.395  23.546  0.00  0.00    +0.000 A 
ATOM     19  N   UNL     1     -21.708   8.306  22.805  0.00  0.00    +0.000 N 
ATOM     20  C   UNL     1     -21.857   9.682  23.250  0.00  0.00    +0.000 C 
ATOM     21  C   UNL     1     -21.461   9.746  24.764  0.00  0.00    +0.000 C 
ATOM     22  C   UNL     1     -21.554  11.129  25.403  0.00  0.00    +0.000 C 
ATOM     23  C   UNL     1     -23.040  11.308  25.447  0.00  0.00    +0.000 C 
ATOM     24  C   UNL     1     -23.637  10.092  25.527  0.00  0.00    +0.000 C 
ATOM     25  C   UNL     1     -22.585   8.997  25.518  0.00  0.00    +0.000 C 
ATOM     26  C   UNL     1     -22.917   7.670  24.867  0.00  0.00    +0.000 A 
ATOM     27  C   UNL     1     -23.516   6.644  25.633  0.00  0.00    +0.000 A 
ATOM     28  H   UNL     1     -21.855   8.206  21.806  0.00  0.00    +0.000 HD
BRANCH  15  36
ATOM     29  C   UNL     1     -27.557   2.878  29.146  0.00  0.00    +0.000 A 
ATOM     30  C   UNL     1     -27.465   1.540  28.781  0.00  0.00    +0.000 A 
ATOM     31  C   UNL     1     -26.660   1.180  27.706  0.00  0.00    +0.000 A 
ATOM     32  C   UNL     1     -25.909   2.150  27.010  0.00  0.00    +0.000 A 
ATOM     33  C   UNL     1     -26.022   3.499  27.358  0.00  0.00    +0.000 A 
ATOM     34  C   UNL     1     -26.862   3.851  28.423  0.00  0.00    +0.000 A 
ATOM     35  N   UNL     1     -25.457   4.501  26.547  0.00  0.00    +0.000 N 
ATOM     36  C   UNL     1     -24.134   4.177  26.001  0.00  0.00    +0.000 C 
ATOM     37  C   UNL     1     -24.106   2.831  25.273  0.00  0.00    +0.000 C 
ATOM     38  C   UNL     1     -22.731   2.164  25.423  0.00  0.00    +0.000 C 
ATOM     39  C   UNL     1     -23.063   0.721  25.424  0.00  0.00    +0.000 C 
ATOM     40  C   UNL     1     -24.308   0.536  25.873  0.00  0.00    +0.000 C 
ATOM     41  C   UNL     1     -25.129   1.789  25.786  0.00  0.00    +0.000 C 
ATOM     42  H   UNL     1     -25.438   5.397  27.026  0.00  0.00    +0.000 HD
ENDBRANCH  15  36
ENDBRANCH   1  20
BRANCH   6  43
ATOM     43  C   UNL     1     -18.862  14.031  17.225  0.00  0.00    +0.000 A 
ATOM     44  C   UNL     1     -18.854  13.752  15.838  0.00  0.00    +0.000 A 
ATOM     45  C   UNL     1     -18.094  14.503  14.942  0.00  0.00    +0.000 A 
ATOM     46  C   UNL     1     -17.367  15.589  15.398  0.00  0.00    +0.000 A 
ATOM     47  C   UNL     1     -17.424  15.940  16.744  0.00  0.00    +0.000 A 
ATOM     48  C   UNL     1     -18.172  15.196  17.689  0.00  0.00    +0.000 A 
BRANCH  48  49
ATOM     49  C   UNL     1     -18.147  15.720  19.145  0.00  0.00    +0.000 C 
ATOM     50  N   UNL     1     -19.494  15.535  19.717  0.00  0.00    +0.000 N 
ATOM     51  C   UNL     1     -19.660  15.770  21.087  0.00  0.00    +0.000 A 
ATOM     52  C   UNL     1     -20.959  15.919  21.612  0.00  0.00    +0.000 A 
ATOM     53  C   UNL     1     -21.179  16.020  22.988  0.00  0.00    +0.000 A 
ATOM     54  C   UNL     1     -20.107  15.976  23.870  0.00  0.00    +0.000 A 
ATOM     55  C   UNL     1     -18.818  15.809  23.372  0.00  0.00    +0.000 A 
ATOM     56  C   UNL     1     -18.593  15.680  21.984  0.00  0.00    +0.000 A 
ATOM     57  C   UNL     1     -17.208  15.357  21.501  0.00  0.00    +0.000 C 
ATOM     58  C   UNL     1     -16.218  16.486  21.565  0.00  0.00    +0.000 C 
ATOM     59  C   UNL     1     -15.362  16.417  20.539  0.00  0.00    +0.000 C 
ATOM     60  C   UNL     1     -15.667  15.257  19.652  0.00  0.00    +0.000 C 
ATOM     61  C   UNL     1     -17.125  14.937  20.017  0.00  0.00    +0.000 C 
ATOM     62  H   UNL     1     -20.235  15.924  19.143  0.00  0.00    +0.000 HD
ENDBRANCH  48  49
ENDBRANCH   6  43
TORSDOF 4
ENDMDL
