
 OpenBabel06022115293D

 40 43  0  0  0  0  0  0  0  0999 V2000
    2.1817   -0.8339   -0.5011 C   0  0  0  0  0  0  0  0  0  0  0  0
    2.9455   -0.2127    0.4039 C   0  0  0  0  0  0  0  0  0  0  0  0
    3.2743    1.2230    0.3568 C   0  0  0  0  0  0  0  0  0  0  0  0
    2.5307    2.2168    1.0396 C   0  0  0  0  0  0  0  0  0  0  0  0
    1.4472    1.8599    1.9444 C   0  0  0  0  0  0  0  0  0  0  0  0
    0.2256    2.4902    2.0626 C   0  0  0  0  0  0  0  0  0  0  0  0
   -0.7041    1.7001    3.2820 S   0  0  0  0  0  0  0  0  0  0  0  0
    0.6069    0.6454    3.5864 C   0  0  0  0  0  0  0  0  0  0  0  0
    0.6492   -0.5164    4.5181 C   0  0  0  0  0  0  0  0  0  0  0  0
    1.8200   -1.2287    4.7009 C   0  0  0  0  0  0  0  0  0  0  0  0
    1.5490   -2.2496    5.5581 N   0  0  0  0  0  0  0  0  0  0  0  0
    0.1857   -2.3970    5.6493 C   0  0  0  0  0  0  0  0  0  0  0  0
   -0.5716   -3.4943    6.0602 C   0  0  0  0  0  0  0  0  0  0  0  0
   -1.9564   -3.3314    6.0973 C   0  0  0  0  0  0  0  0  0  0  0  0
   -2.5395   -2.0911    5.8451 C   0  0  0  0  0  0  0  0  0  0  0  0
   -1.7664   -1.0069    5.4142 C   0  0  0  0  0  0  0  0  0  0  0  0
   -0.3857   -1.1959    5.2143 C   0  0  0  0  0  0  0  0  0  0  0  0
    1.6765    0.8713    2.8628 N   0  0  0  0  0  0  0  0  0  0  0  0
    2.9585    3.5537    1.0303 C   0  0  0  0  0  0  0  0  0  0  0  0
    4.1412    3.9232    0.3895 C   0  0  0  0  0  0  0  0  0  0  0  0
    4.7048    5.2196    0.5210 N   0  0  0  0  0  0  0  0  0  0  0  0
    3.8773    6.3272    0.7512 N   0  0  0  0  0  0  0  0  0  0  0  0
    4.8871    2.9268   -0.2667 C   0  0  0  0  0  0  0  0  0  0  0  0
    4.4427    1.5997   -0.2984 C   0  0  0  0  0  0  0  0  0  0  0  0
    1.9689   -1.8926   -0.3904 H   0  0  0  0  0  0  0  0  0  0  0  0
    1.7424   -0.3150   -1.3454 H   0  0  0  0  0  0  0  0  0  0  0  0
    3.3497   -0.7558    1.2542 H   0  0  0  0  0  0  0  0  0  0  0  0
   -0.1703    3.3342    1.5159 H   0  0  0  0  0  0  0  0  0  0  0  0
    2.8091   -1.0837    4.2851 H   0  0  0  0  0  0  0  0  0  0  0  0
    2.2331   -2.8753    5.9597 H   0  0  0  0  0  0  0  0  0  0  0  0
   -0.1092   -4.4519    6.2763 H   0  0  0  0  0  0  0  0  0  0  0  0
   -2.5866   -4.1850    6.3326 H   0  0  0  0  0  0  0  0  0  0  0  0
   -3.6158   -1.9735    5.9390 H   0  0  0  0  0  0  0  0  0  0  0  0
   -2.2470   -0.0619    5.1829 H   0  0  0  0  0  0  0  0  0  0  0  0
    2.4134    4.2836    1.6162 H   0  0  0  0  0  0  0  0  0  0  0  0
    5.4816    5.3812   -0.1239 H   0  0  0  0  0  0  0  0  0  0  0  0
    3.3285    6.2092    1.6036 H   0  0  0  0  0  0  0  0  0  0  0  0
    3.2144    6.4522   -0.0169 H   0  0  0  0  0  0  0  0  0  0  0  0
    5.8343    3.1683   -0.7256 H   0  0  0  0  0  0  0  0  0  0  0  0
    5.0524    0.8492   -0.8022 H   0  0  0  0  0  0  0  0  0  0  0  0
  1  2  2  0  0  0  0
  1 25  1  0  0  0  0
  1 26  1  0  0  0  0
  2  3  1  0  0  0  0
  2 27  1  0  0  0  0
  3  4  2  0  0  0  0
  3 24  1  0  0  0  0
  4  5  1  0  0  0  0
  4 19  1  0  0  0  0
  5  6  2  0  0  0  0
  5 18  1  0  0  0  0
  6  7  1  0  0  0  0
  6 28  1  0  0  0  0
  7  8  1  0  0  0  0
  8  9  1  0  0  0  0
  8 18  2  0  0  0  0
  9 10  2  0  0  0  0
  9 17  1  0  0  0  0
 10 11  1  0  0  0  0
 10 29  1  0  0  0  0
 11 12  1  0  0  0  0
 11 30  1  0  0  0  0
 12 13  2  0  0  0  0
 12 17  1  0  0  0  0
 13 14  1  0  0  0  0
 13 31  1  0  0  0  0
 14 15  2  0  0  0  0
 14 32  1  0  0  0  0
 15 16  1  0  0  0  0
 15 33  1  0  0  0  0
 16 17  2  0  0  0  0
 16 34  1  0  0  0  0
 19 20  2  0  0  0  0
 19 35  1  0  0  0  0
 20 21  1  0  0  0  0
 20 23  1  0  0  0  0
 21 22  1  0  0  0  0
 21 36  1  0  0  0  0
 22 37  1  0  0  0  0
 22 38  1  0  0  0  0
 23 24  2  0  0  0  0
 23 39  1  0  0  0  0
 24 40  1  0  0  0  0
M  END
