
 OpenBabel06022115293D

 49 52  0  0  0  0  0  0  0  0999 V2000
    2.4158    1.2079   -0.4576 F   0  0  0  0  0  0  0  0  0  0  0  0
    1.9392   -0.0434   -0.2226 C   0  0  0  0  0  0  0  0  0  0  0  0
    2.0456   -0.2303    1.1262 F   0  0  0  0  0  0  0  0  0  0  0  0
    0.5977    0.0229   -0.4690 F   0  0  0  0  0  0  0  0  0  0  0  0
    2.5942   -1.1592   -1.0003 C   0  0  0  0  0  0  0  0  0  0  0  0
    3.5667   -0.9596   -1.9845 C   0  0  0  0  0  0  0  0  0  0  0  0
    4.0684    0.3097   -2.2000 O   0  0  0  0  0  0  0  0  0  0  0  0
    5.4003    0.4356   -2.5566 C   0  0  0  0  0  0  0  0  0  0  0  0
    6.4261   -0.3418   -1.9975 C   0  0  0  0  0  0  0  0  0  0  0  0
    7.7526   -0.2188   -2.4406 C   0  0  0  0  0  0  0  0  0  0  0  0
    8.7925   -1.0891   -1.8936 C   0  0  0  0  0  0  0  0  0  0  0  0
    8.7843   -2.1936   -1.0609 C   0  0  0  0  0  0  0  0  0  0  0  0
   10.1336   -2.5802   -0.8745 C   0  0  0  0  0  0  0  0  0  0  0  0
   10.8853   -1.7016   -1.6190 C   0  0  0  0  0  0  0  0  0  0  0  0
   10.0839   -0.8020   -2.2439 O   0  0  0  0  0  0  0  0  0  0  0  0
    8.0386    0.7461   -3.4148 C   0  0  0  0  0  0  0  0  0  0  0  0
    7.0268    1.5608   -3.9381 C   0  0  0  0  0  0  0  0  0  0  0  0
    5.7088    1.4057   -3.5071 C   0  0  0  0  0  0  0  0  0  0  0  0
    4.0017   -2.0476   -2.7552 C   0  0  0  0  0  0  0  0  0  0  0  0
    3.5954   -3.3419   -2.4529 C   0  0  0  0  0  0  0  0  0  0  0  0
    2.6996   -3.5762   -1.4084 C   0  0  0  0  0  0  0  0  0  0  0  0
    2.3083   -4.9869   -1.0099 C   0  0  0  0  0  0  0  0  0  0  0  0
    3.5327   -5.7722   -0.5054 C   0  0  0  0  0  0  0  0  0  0  0  0
    3.1652   -7.2025   -0.1240 C   0  0  0  0  0  0  0  0  0  0  0  0
    2.4729   -7.9243   -1.2754 C   0  0  0  0  0  0  0  0  0  0  0  0
    1.2470   -7.1572   -1.7633 C   0  0  0  0  0  0  0  0  0  0  0  0
    1.6018   -5.7261   -2.1574 C   0  0  0  0  0  0  0  0  0  0  0  0
    2.1768   -2.4767   -0.7163 C   0  0  0  0  0  0  0  0  0  0  0  0
    6.1821   -1.0676   -1.2269 H   0  0  0  0  0  0  0  0  0  0  0  0
    7.9113   -2.6625   -0.6295 H   0  0  0  0  0  0  0  0  0  0  0  0
   10.5106   -3.3927   -0.2720 H   0  0  0  0  0  0  0  0  0  0  0  0
   11.9462   -1.5856   -1.7983 H   0  0  0  0  0  0  0  0  0  0  0  0
    9.0556    0.8754   -3.7812 H   0  0  0  0  0  0  0  0  0  0  0  0
    7.2682    2.3109   -4.6877 H   0  0  0  0  0  0  0  0  0  0  0  0
    4.9238    2.0322   -3.9225 H   0  0  0  0  0  0  0  0  0  0  0  0
    4.6986   -1.9029   -3.5790 H   0  0  0  0  0  0  0  0  0  0  0  0
    4.0057   -4.1650   -3.0333 H   0  0  0  0  0  0  0  0  0  0  0  0
    1.5961   -4.9252   -0.1746 H   0  0  0  0  0  0  0  0  0  0  0  0
    3.9738   -5.2652    0.3624 H   0  0  0  0  0  0  0  0  0  0  0  0
    4.3161   -5.8055   -1.2741 H   0  0  0  0  0  0  0  0  0  0  0  0
    2.5054   -7.1886    0.7518 H   0  0  0  0  0  0  0  0  0  0  0  0
    4.0692   -7.7497    0.1648 H   0  0  0  0  0  0  0  0  0  0  0  0
    2.1739   -8.9281   -0.9549 H   0  0  0  0  0  0  0  0  0  0  0  0
    3.1792   -8.0497   -2.1058 H   0  0  0  0  0  0  0  0  0  0  0  0
    0.4872   -7.1402   -0.9731 H   0  0  0  0  0  0  0  0  0  0  0  0
    0.8035   -7.6758   -2.6215 H   0  0  0  0  0  0  0  0  0  0  0  0
    0.6892   -5.1883   -2.4436 H   0  0  0  0  0  0  0  0  0  0  0  0
    2.2378   -5.7559   -3.0511 H   0  0  0  0  0  0  0  0  0  0  0  0
    1.4388   -2.6389    0.0698 H   0  0  0  0  0  0  0  0  0  0  0  0
  1  2  1  0  0  0  0
  2  3  1  0  0  0  0
  2  4  1  0  0  0  0
  2  5  1  0  0  0  0
  5  6  2  0  0  0  0
  5 28  1  0  0  0  0
  6  7  1  0  0  0  0
  6 19  1  0  0  0  0
  7  8  1  0  0  0  0
  8  9  2  0  0  0  0
  8 18  1  0  0  0  0
  9 10  1  0  0  0  0
  9 29  1  0  0  0  0
 10 11  1  0  0  0  0
 10 16  2  0  0  0  0
 11 12  2  0  0  0  0
 11 15  1  0  0  0  0
 12 13  1  0  0  0  0
 12 30  1  0  0  0  0
 13 14  2  0  0  0  0
 13 31  1  0  0  0  0
 14 15  1  0  0  0  0
 14 32  1  0  0  0  0
 16 17  1  0  0  0  0
 16 33  1  0  0  0  0
 17 18  2  0  0  0  0
 17 34  1  0  0  0  0
 18 35  1  0  0  0  0
 19 20  2  0  0  0  0
 19 36  1  0  0  0  0
 20 21  1  0  0  0  0
 20 37  1  0  0  0  0
 21 22  1  0  0  0  0
 21 28  2  0  0  0  0
 22 23  1  0  0  0  0
 22 27  1  0  0  0  0
 22 38  1  0  0  0  0
 23 24  1  0  0  0  0
 23 39  1  0  0  0  0
 23 40  1  0  0  0  0
 24 25  1  0  0  0  0
 24 41  1  0  0  0  0
 24 42  1  0  0  0  0
 25 26  1  0  0  0  0
 25 43  1  0  0  0  0
 25 44  1  0  0  0  0
 26 27  1  0  0  0  0
 26 45  1  0  0  0  0
 26 46  1  0  0  0  0
 27 47  1  0  0  0  0
 27 48  1  0  0  0  0
 28 49  1  0  0  0  0
M  END
