REMARK  Name = 
REMARK  5 active torsions:
REMARK  status: ('A' for Active; 'I' for Inactive)
REMARK    1  A    between atoms: C_2  and  C_4
REMARK    2  A    between atoms: C_4  and  C_6
REMARK    3  A    between atoms: C_7  and  C_8
REMARK    4  A    between atoms: C_13  and  N_14
REMARK    5  A    between atoms: N_14  and  C_15
REMARK                            x       y       z     vdW  Elec       q    Type
REMARK                         _______ _______ _______ _____ _____    ______ ____
ROOT
ATOM      1  C   UNL     1       4.777   1.072   0.867  0.00  0.00    +0.000 A 
ATOM      2  C   UNL     1       5.319   0.849  -0.417  0.00  0.00    +0.000 A 
ATOM      3  C   UNL     1       6.717   0.971  -0.535  0.00  0.00    +0.000 A 
ATOM      4  C   UNL     1       7.541   1.325   0.543  0.00  0.00    +0.000 A 
ATOM      5  C   UNL     1       6.994   1.603   1.787  0.00  0.00    +0.000 A 
ATOM      6  C   UNL     1       5.607   1.471   1.935  0.00  0.00    +0.000 A 
ENDROOT
BRANCH   2   7
ATOM      7  C   UNL     1       4.489   0.571  -1.657  0.00  0.00    +0.000 C 
ATOM      8  C   UNL     1       3.751  -0.734  -1.823  0.00  0.00    +0.000 C 
ATOM      9  C   UNL     1       4.931  -0.438  -2.694  0.00  0.00    +0.000 C 
ENDBRANCH   2   7
BRANCH   1  10
ATOM     10  C   UNL     1       3.311   0.944   1.114  0.00  0.00    +0.000 C 
ATOM     11  O   UNL     1       2.472   1.259   0.275  0.00  0.00    +0.000 OA
BRANCH  10  13
ATOM     12  N   UNL     1       1.438   0.392   2.584  0.00  0.00    +0.000 N 
ATOM     13  C   UNL     1       2.802   0.406   2.467  0.00  0.00    +0.000 C 
ATOM     14  O   UNL     1       3.541   0.022   3.357  0.00  0.00    +0.000 OA
ATOM     15  H   UNL     1       1.012   0.015   3.416  0.00  0.00    +0.000 HD
ATOM     16  H   UNL     1       0.865   0.657   1.790  0.00  0.00    +0.000 HD
ENDBRANCH  10  13
ENDBRANCH   1  10
BRANCH   5  17
ATOM     17  N   UNL     1       7.706   2.027   2.928  0.00  0.00    +0.000 N 
ATOM     18  H   UNL     1       7.140   2.184   3.756  0.00  0.00    +0.000 HD
BRANCH  17  19
ATOM     19  C   UNL     1       9.029   2.299   3.168  0.00  0.00    +0.000 C 
ATOM     20  S   UNL     1      10.379   2.209   2.207  0.00  0.00    +0.000 S 
ATOM     21 CL   UNL     1       9.331   2.847   4.779  0.00  0.00    +0.000 Cl
ENDBRANCH  17  19
ENDBRANCH   5  17
TORSDOF 5
