REMARK  Name = 
REMARK  4 active torsions:
REMARK  status: ('A' for Active; 'I' for Inactive)
REMARK    1  A    between atoms: C_8  and  C_9
REMARK    2  A    between atoms: C_14  and  C_15
REMARK    3  A    between atoms: C_20  and  C_21
REMARK    4  A    between atoms: C_26  and  C_27
REMARK                            x       y       z     vdW  Elec       q    Type
REMARK                         _______ _______ _______ _____ _____    ______ ____
ROOT
ATOM      1  C   UNL     1       3.384 -10.253  -5.789  0.00  0.00    +0.000 A 
ATOM      2  C   UNL     1       4.557 -10.812  -5.224  0.00  0.00    +0.000 A 
ATOM      3  C   UNL     1       5.117 -11.995  -5.702  0.00  0.00    +0.000 A 
ATOM      4  C   UNL     1       4.493 -12.688  -6.725  0.00  0.00    +0.000 A 
ATOM      5  C   UNL     1       3.299 -12.209  -7.259  0.00  0.00    +0.000 A 
ATOM      6  C   UNL     1       2.707 -10.997  -6.814  0.00  0.00    +0.000 A 
ENDROOT
BRANCH   1  12
ATOM      7  C   UNL     1       0.667  -4.965  -3.029  0.00  0.00    +0.000 A 
ATOM      8  C   UNL     1       0.052  -6.150  -2.596  0.00  0.00    +0.000 A 
ATOM      9  C   UNL     1       0.508  -7.408  -3.021  0.00  0.00    +0.000 A 
ATOM     10  C   UNL     1       1.581  -7.539  -3.909  0.00  0.00    +0.000 A 
ATOM     11  N   UNL     1       2.102  -8.826  -4.194  0.00  0.00    +0.000 N 
ATOM     12  C   UNL     1       3.004  -8.837  -5.352  0.00  0.00    +0.000 C 
ATOM     13  C   UNL     1       4.178  -7.835  -4.960  0.00  0.00    +0.000 C 
ATOM     14  C   UNL     1       5.332  -7.695  -5.954  0.00  0.00    +0.000 C 
ATOM     15  C   UNL     1       4.621  -6.991  -7.069  0.00  0.00    +0.000 C 
ATOM     16  C   UNL     1       3.605  -6.270  -6.569  0.00  0.00    +0.000 C 
ATOM     17  C   UNL     1       3.558  -6.430  -5.053  0.00  0.00    +0.000 C 
ATOM     18  C   UNL     1       2.236  -6.352  -4.334  0.00  0.00    +0.000 A 
ATOM     19  C   UNL     1       1.747  -5.085  -3.924  0.00  0.00    +0.000 A 
ATOM     20  H   UNL     1       1.386  -9.543  -4.212  0.00  0.00    +0.000 HD
BRANCH   7  28
ATOM     21  C   UNL     1       1.933  -0.095   0.438  0.00  0.00    +0.000 A 
ATOM     22  C   UNL     1       1.155   0.863  -0.198  0.00  0.00    +0.000 A 
ATOM     23  C   UNL     1       0.437   0.515  -1.339  0.00  0.00    +0.000 A 
ATOM     24  C   UNL     1       0.461  -0.801  -1.837  0.00  0.00    +0.000 A 
ATOM     25  C   UNL     1       1.250  -1.769  -1.214  0.00  0.00    +0.000 A 
ATOM     26  C   UNL     1       2.003  -1.391  -0.079  0.00  0.00    +0.000 A 
ATOM     27  N   UNL     1       1.450  -3.026  -1.791  0.00  0.00    +0.000 N 
ATOM     28  C   UNL     1       0.260  -3.615  -2.418  0.00  0.00    +0.000 C 
ATOM     29  C   UNL     1      -0.421  -2.662  -3.413  0.00  0.00    +0.000 C 
ATOM     30  C   UNL     1      -1.946  -2.865  -3.434  0.00  0.00    +0.000 C 
ATOM     31  C   UNL     1      -2.474  -1.506  -3.797  0.00  0.00    +0.000 C 
ATOM     32  C   UNL     1      -1.638  -0.579  -3.295  0.00  0.00    +0.000 C 
ATOM     33  C   UNL     1      -0.232  -1.154  -3.126  0.00  0.00    +0.000 C 
ATOM     34  H   UNL     1       1.870  -3.678  -1.134  0.00  0.00    +0.000 HD
ENDBRANCH   7  28
ENDBRANCH   1  12
BRANCH   6  35
ATOM     35  C   UNL     1       1.387 -10.593  -7.521  0.00  0.00    +0.000 C 
ATOM     36  N   UNL     1       1.638 -10.477  -8.967  0.00  0.00    +0.000 N 
ATOM     37  C   UNL     1       0.588 -10.393  -9.877  0.00  0.00    +0.000 A 
ATOM     38  C   UNL     1       0.801  -9.990 -11.203  0.00  0.00    +0.000 A 
ATOM     39  C   UNL     1      -0.241  -9.967 -12.147  0.00  0.00    +0.000 A 
ATOM     40  C   UNL     1      -1.535 -10.372 -11.795  0.00  0.00    +0.000 A 
ATOM     41  C   UNL     1      -1.745 -10.779 -10.475  0.00  0.00    +0.000 A 
ATOM     42  C   UNL     1      -0.704 -10.794  -9.523  0.00  0.00    +0.000 A 
ATOM     43  C   UNL     1      -0.985 -11.351  -8.163  0.00  0.00    +0.000 C 
ATOM     44  C   UNL     1      -1.786 -10.479  -7.237  0.00  0.00    +0.000 C 
ATOM     45  C   UNL     1      -1.423 -10.699  -5.967  0.00  0.00    +0.000 C 
ATOM     46  C   UNL     1      -0.305 -11.702  -5.896  0.00  0.00    +0.000 C 
ATOM     47  C   UNL     1       0.263 -11.666  -7.319  0.00  0.00    +0.000 C 
ATOM     48  H   UNL     1       2.558 -10.164  -9.256  0.00  0.00    +0.000 HD
BRANCH  40  49
ATOM     49  C   UNL     1      -2.693 -10.386 -12.773  0.00  0.00    +0.000 C 
ATOM     50  N   UNL     1      -2.983  -9.008 -13.179  0.00  0.00    +0.000 N 
ATOM     51  C   UNL     1      -4.070  -8.868 -14.059  0.00  0.00    +0.000 A 
ATOM     52  C   UNL     1      -4.678  -7.614 -14.200  0.00  0.00    +0.000 A 
ATOM     53  C   UNL     1      -5.689  -7.404 -15.141  0.00  0.00    +0.000 A 
ATOM     54  C   UNL     1      -6.093  -8.445 -15.970  0.00  0.00    +0.000 A 
ATOM     55  C   UNL     1      -5.479  -9.691 -15.863  0.00  0.00    +0.000 A 
ATOM     56  C   UNL     1      -4.454  -9.908 -14.924  0.00  0.00    +0.000 A 
ATOM     57  C   UNL     1      -3.734 -11.230 -14.911  0.00  0.00    +0.000 C 
ATOM     58  C   UNL     1      -4.505 -12.393 -14.335  0.00  0.00    +0.000 C 
ATOM     59  C   UNL     1      -3.686 -13.238 -13.695  0.00  0.00    +0.000 C 
ATOM     60  C   UNL     1      -2.273 -12.742 -13.727  0.00  0.00    +0.000 C 
ATOM     61  C   UNL     1      -2.458 -11.248 -14.041  0.00  0.00    +0.000 C 
ATOM     62  H   UNL     1      -3.061  -8.384 -12.379  0.00  0.00    +0.000 HD
ENDBRANCH  40  49
ENDBRANCH   6  35
TORSDOF 4
