
 OpenBabel06022115293D

 46 49  0  0  0  0  0  0  0  0999 V2000
    0.8303   -1.8399    1.4791 O   0  0  0  0  0  0  0  0  0  0  0  0
    1.6421   -1.1412    0.8482 N   0  3  0  0  0  0  0  0  0  0  0  0
    1.5065    0.0597    0.5837 O   0  5  0  0  0  0  0  0  0  0  0  0
    2.8301   -1.8099    0.3486 C   0  0  0  0  0  0  0  0  0  0  0  0
    2.5809   -2.7929   -0.6308 C   0  0  0  0  0  0  0  0  0  0  0  0
    3.6425   -3.4467   -1.2460 C   0  0  0  0  0  0  0  0  0  0  0  0
    4.9504   -3.1515   -0.8601 C   0  0  0  0  0  0  0  0  0  0  0  0
    6.1429   -3.7542   -1.5655 C   0  0  0  0  0  0  0  0  0  0  0  0
    5.8137   -4.7830   -2.3965 F   0  0  0  0  0  0  0  0  0  0  0  0
    6.8057   -2.8511   -2.3351 F   0  0  0  0  0  0  0  0  0  0  0  0
    7.0629   -4.2597   -0.6977 F   0  0  0  0  0  0  0  0  0  0  0  0
    5.1647   -2.2349    0.1897 C   0  0  0  0  0  0  0  0  0  0  0  0
    4.1337   -1.4897    0.8073 C   0  0  0  0  0  0  0  0  0  0  0  0
    4.4892   -0.5222    1.9110 C   0  0  0  0  0  0  0  0  0  0  0  0
    3.6233   -0.4402    3.0343 C   0  0  0  0  0  0  0  0  0  0  0  0
    3.8939    0.3328    4.1706 C   0  0  0  0  0  0  0  0  0  0  0  0
    2.8674    0.4608    5.2700 C   0  0  0  0  0  0  0  0  0  0  0  0
    2.8645   -0.7156    6.2302 C   0  0  0  0  0  0  0  0  0  0  0  0
    4.0474   -0.7606    6.9001 F   0  0  0  0  0  0  0  0  0  0  0  0
    5.1211    0.9684    4.2598 C   0  0  0  0  0  0  0  0  0  0  0  0
    5.9957    0.9381    3.1744 C   0  0  0  0  0  0  0  0  0  0  0  0
    5.7019    0.2535    1.9662 C   0  0  0  0  0  0  0  0  0  0  0  0
    6.6971    0.3886    0.8524 C   0  0  0  0  0  0  0  0  0  0  0  0
    6.2988    0.5550   -0.4895 C   0  0  0  0  0  0  0  0  0  0  0  0
    7.2620    0.5473   -1.4864 C   0  0  0  0  0  0  0  0  0  0  0  0
    8.6017    0.4731   -1.2019 C   0  0  0  0  0  0  0  0  0  0  0  0
    9.0574    0.3959    0.0904 C   0  0  0  0  0  0  0  0  0  0  0  0
    8.0965    0.3303    1.1138 C   0  0  0  0  0  0  0  0  0  0  0  0
    9.3739    0.4649   -2.3209 O   0  0  0  0  0  0  0  0  0  0  0  0
    8.3595    0.4550   -3.3468 C   0  0  0  0  0  0  0  0  0  0  0  0
    7.0181    0.5706   -2.8246 O   0  0  0  0  0  0  0  0  0  0  0  0
    1.5601   -3.0392   -0.9224 H   0  0  0  0  0  0  0  0  0  0  0  0
    3.4453   -4.1822   -2.0247 H   0  0  0  0  0  0  0  0  0  0  0  0
    6.1984   -2.0985    0.5112 H   0  0  0  0  0  0  0  0  0  0  0  0
    2.6997   -1.0104    3.0671 H   0  0  0  0  0  0  0  0  0  0  0  0
    1.8745    0.5653    4.8134 H   0  0  0  0  0  0  0  0  0  0  0  0
    3.0471    1.3898    5.8245 H   0  0  0  0  0  0  0  0  0  0  0  0
    2.7228   -1.6710    5.7163 H   0  0  0  0  0  0  0  0  0  0  0  0
    2.0706   -0.5960    6.9736 H   0  0  0  0  0  0  0  0  0  0  0  0
    5.4028    1.5055    5.1629 H   0  0  0  0  0  0  0  0  0  0  0  0
    6.9304    1.4876    3.2834 H   0  0  0  0  0  0  0  0  0  0  0  0
    5.2530    0.6386   -0.7626 H   0  0  0  0  0  0  0  0  0  0  0  0
   10.1184    0.3554    0.3086 H   0  0  0  0  0  0  0  0  0  0  0  0
    8.4659    0.2204    2.1341 H   0  0  0  0  0  0  0  0  0  0  0  0
    8.4441   -0.4815   -3.9130 H   0  0  0  0  0  0  0  0  0  0  0  0
    8.5408    1.2939   -4.0273 H   0  0  0  0  0  0  0  0  0  0  0  0
  1  2  2  0  0  0  0
  2  3  1  0  0  0  0
  2  4  1  0  0  0  0
  4  5  2  0  0  0  0
  4 13  1  0  0  0  0
  5  6  1  0  0  0  0
  5 32  1  0  0  0  0
  6  7  2  0  0  0  0
  6 33  1  0  0  0  0
  7  8  1  0  0  0  0
  7 12  1  0  0  0  0
  8  9  1  0  0  0  0
  8 10  1  0  0  0  0
  8 11  1  0  0  0  0
 12 13  2  0  0  0  0
 12 34  1  0  0  0  0
 13 14  1  0  0  0  0
 14 15  2  0  0  0  0
 14 22  1  0  0  0  0
 15 16  1  0  0  0  0
 15 35  1  0  0  0  0
 16 17  1  0  0  0  0
 16 20  2  0  0  0  0
 17 18  1  0  0  0  0
 17 36  1  0  0  0  0
 17 37  1  0  0  0  0
 18 19  1  0  0  0  0
 18 38  1  0  0  0  0
 18 39  1  0  0  0  0
 20 21  1  0  0  0  0
 20 40  1  0  0  0  0
 21 22  2  0  0  0  0
 21 41  1  0  0  0  0
 22 23  1  0  0  0  0
 23 24  2  0  0  0  0
 23 28  1  0  0  0  0
 24 25  1  0  0  0  0
 24 42  1  0  0  0  0
 25 26  2  0  0  0  0
 25 31  1  0  0  0  0
 26 27  1  0  0  0  0
 26 29  1  0  0  0  0
 27 28  2  0  0  0  0
 27 43  1  0  0  0  0
 28 44  1  0  0  0  0
 29 30  1  0  0  0  0
 30 31  1  0  0  0  0
 30 45  1  0  0  0  0
 30 46  1  0  0  0  0
M  CHG  2   2   1   3  -1
M  END
