
 OpenBabel06022115293D

 54 58  0  0  1  0  0  0  0  0999 V2000
    1.1468    0.7447   -0.2007 O   0  0  0  0  0  0  0  0  0  0  0  0
    2.1961    0.9292    0.3962 C   0  0  0  0  0  0  0  0  0  0  0  0
    2.8699   -0.2078    1.1361 C   0  0  0  0  0  0  0  0  0  0  0  0
    4.0189   -0.4781    0.7844 O   0  0  0  0  0  0  0  0  0  0  0  0
    2.1992   -0.7535    2.2469 N   0  0  0  0  0  0  0  0  0  0  0  0
    0.8070   -0.9702    2.2534 C   0  0  0  0  0  0  0  0  0  0  0  0
   -0.0098   -0.0319    2.8862 C   0  0  0  0  0  0  0  0  0  0  0  0
   -1.3865   -0.2221    2.9104 C   0  0  0  0  0  0  0  0  0  0  0  0
   -1.9446   -1.3501    2.3030 C   0  0  0  0  0  0  0  0  0  0  0  0
   -1.1529   -2.2895    1.6125 C   0  0  0  0  0  0  0  0  0  0  0  0
   -1.7733   -3.4097    0.8641 C   0  0  0  0  0  0  0  0  0  0  0  0
   -3.0013   -3.2222    0.1978 C   0  0  0  0  0  0  0  0  0  0  0  0
   -3.5844   -4.2291   -0.5757 C   0  0  0  0  0  0  0  0  0  0  0  0
   -2.9341   -5.4565   -0.7066 C   0  0  0  0  0  0  0  0  0  0  0  0
   -3.5195   -6.4955   -1.5621 N   0  3  0  0  0  0  0  0  0  0  0  0
   -4.6072   -6.2508   -2.1042 O   0  0  0  0  0  0  0  0  0  0  0  0
   -2.8904   -7.5550   -1.6958 O   0  5  0  0  0  0  0  0  0  0  0  0
   -1.7243   -5.6879   -0.0431 C   0  0  0  0  0  0  0  0  0  0  0  0
   -1.1574   -4.6706    0.7408 C   0  0  0  0  0  0  0  0  0  0  0  0
    0.2379   -2.0767    1.6035 C   0  0  0  0  0  0  0  0  0  0  0  0
    3.0073   -1.4412    3.1997 C   0  0  0  0  0  0  0  0  0  0  0  0
    2.8378   -2.7736    3.5947 C   0  0  0  0  0  0  0  0  0  0  0  0
    3.8835   -3.4459    4.2666 C   0  0  0  0  0  0  0  0  0  0  0  0
    5.0844   -2.7929    4.5761 C   0  0  0  0  0  0  0  0  0  0  0  0
    5.1852   -1.4583    4.2594 C   0  0  0  0  0  0  0  0  0  0  0  0
    4.1591   -0.7983    3.6324 C   0  0  0  0  0  0  0  0  0  0  0  0
    4.4424    0.5273    3.4413 O   0  0  0  0  0  0  0  0  0  0  0  0
    5.8561    0.5081    3.6891 C   0  0  0  0  0  0  0  0  0  0  0  0
    6.2706   -0.6557    4.4371 O   0  0  0  0  0  0  0  0  0  0  0  0
    2.9944    2.2291    0.4175 C   0  0  3  0  0  0  0  0  0  0  0  0
    3.9550    2.2775   -0.7300 C   0  0  0  0  0  0  0  0  0  0  0  0
    3.7413    3.3126   -1.5502 C   0  0  0  0  0  0  0  0  0  0  0  0
    2.5981    4.1523   -1.0868 C   0  0  0  0  0  0  0  0  0  0  0  0
    2.1280    3.4782    0.2078 C   0  0  0  0  0  0  0  0  0  0  0  0
    0.4166    0.8557    3.3469 H   0  0  0  0  0  0  0  0  0  0  0  0
   -2.0320    0.5103    3.3887 H   0  0  0  0  0  0  0  0  0  0  0  0
   -3.0244   -1.4752    2.3608 H   0  0  0  0  0  0  0  0  0  0  0  0
   -3.5114   -2.2613    0.2455 H   0  0  0  0  0  0  0  0  0  0  0  0
   -4.5268   -4.0263   -1.0799 H   0  0  0  0  0  0  0  0  0  0  0  0
   -1.2061   -6.6410   -0.1316 H   0  0  0  0  0  0  0  0  0  0  0  0
   -0.2172   -4.8787    1.2489 H   0  0  0  0  0  0  0  0  0  0  0  0
    0.8924   -2.7618    1.0708 H   0  0  0  0  0  0  0  0  0  0  0  0
    1.9613   -3.3473    3.3118 H   0  0  0  0  0  0  0  0  0  0  0  0
    3.7790   -4.5049    4.4970 H   0  0  0  0  0  0  0  0  0  0  0  0
    5.9164   -3.3230    5.0260 H   0  0  0  0  0  0  0  0  0  0  0  0
    6.1350    1.4129    4.2377 H   0  0  0  0  0  0  0  0  0  0  0  0
    6.3638    0.5154    2.7153 H   0  0  0  0  0  0  0  0  0  0  0  0
    3.5256    2.3097    1.3717 H   0  0  0  0  0  0  0  0  0  0  0  0
    4.7376    1.5426   -0.8764 H   0  0  0  0  0  0  0  0  0  0  0  0
    4.3164    3.5234   -2.4353 H   0  0  0  0  0  0  0  0  0  0  0  0
    1.8032    4.1657   -1.8378 H   0  0  0  0  0  0  0  0  0  0  0  0
    2.9236    5.1799   -0.9001 H   0  0  0  0  0  0  0  0  0  0  0  0
    1.0579    3.2575    0.1630 H   0  0  0  0  0  0  0  0  0  0  0  0
    2.2659    4.1700    1.0495 H   0  0  0  0  0  0  0  0  0  0  0  0
  1  2  2  0  0  0  0
  2  3  1  0  0  0  0
  2 30  1  0  0  0  0
  3  4  2  0  0  0  0
  3  5  1  0  0  0  0
  5  6  1  0  0  0  0
  5 21  1  0  0  0  0
  6  7  2  0  0  0  0
  6 20  1  0  0  0  0
  7  8  1  0  0  0  0
  7 35  1  0  0  0  0
  8  9  2  0  0  0  0
  8 36  1  0  0  0  0
  9 10  1  0  0  0  0
  9 37  1  0  0  0  0
 10 11  1  0  0  0  0
 10 20  2  0  0  0  0
 11 12  2  0  0  0  0
 11 19  1  0  0  0  0
 12 13  1  0  0  0  0
 12 38  1  0  0  0  0
 13 14  2  0  0  0  0
 13 39  1  0  0  0  0
 14 15  1  0  0  0  0
 14 18  1  0  0  0  0
 15 16  2  0  0  0  0
 15 17  1  0  0  0  0
 18 19  2  0  0  0  0
 18 40  1  0  0  0  0
 19 41  1  0  0  0  0
 20 42  1  0  0  0  0
 21 22  2  0  0  0  0
 21 26  1  0  0  0  0
 22 23  1  0  0  0  0
 22 43  1  0  0  0  0
 23 24  2  0  0  0  0
 23 44  1  0  0  0  0
 24 25  1  0  0  0  0
 24 45  1  0  0  0  0
 25 26  2  0  0  0  0
 25 29  1  0  0  0  0
 26 27  1  0  0  0  0
 27 28  1  0  0  0  0
 28 29  1  0  0  0  0
 28 46  1  0  0  0  0
 28 47  1  0  0  0  0
 30 31  1  0  0  0  0
 30 34  1  0  0  0  0
 30 48  1  0  0  0  0
 31 32  2  0  0  0  0
 31 49  1  0  0  0  0
 32 33  1  0  0  0  0
 32 50  1  0  0  0  0
 33 34  1  0  0  0  0
 33 51  1  0  0  0  0
 33 52  1  0  0  0  0
 34 53  1  0  0  0  0
 34 54  1  0  0  0  0
M  CHG  2  15   1  17  -1
M  END
