REMARK  Name = 
REMARK  5 active torsions:
REMARK  status: ('A' for Active; 'I' for Inactive)
REMARK    1  A    between atoms: C_1  and  S_2
REMARK    2  A    between atoms: S_2  and  S_5
REMARK    3  A    between atoms: S_5  and  C_8
REMARK    4  A    between atoms: C_11  and  C_12
REMARK    5  A    between atoms: C_25  and  C_26
REMARK                            x       y       z     vdW  Elec       q    Type
REMARK                         _______ _______ _______ _____ _____    ______ ____
ROOT
ATOM      1  C   UNL     1       5.734  -1.662   1.007  0.00  0.00    +0.000 A 
ATOM      2  C   UNL     1       6.335  -1.462  -0.217  0.00  0.00    +0.000 A 
ATOM      3  C   UNL     1       7.749  -1.520  -0.324  0.00  0.00    +0.000 A 
ATOM      4  C   UNL     1       8.672  -1.636   0.780  0.00  0.00    +0.000 A 
ATOM      5  C   UNL     1       8.017  -1.825   2.052  0.00  0.00    +0.000 A 
ATOM      6  C   UNL     1       6.560  -1.857   2.107  0.00  0.00    +0.000 A 
ENDROOT
BRANCH   4   7
ATOM      7  C   UNL     1      10.091  -1.054   0.479  0.00  0.00    +0.000 A 
ATOM      8  C   UNL     1       9.995   0.233  -0.088  0.00  0.00    +0.000 A 
ATOM      9  C   UNL     1      11.026   1.131  -0.037  0.00  0.00    +0.000 A 
ATOM     10  C   UNL     1      12.174   0.743   0.599  0.00  0.00    +0.000 A 
ATOM     11  N   UNL     1      12.807   1.698   1.419  0.00  0.00    +0.000 N 
ATOM     12  C   UNL     1      14.124   1.890   0.904  0.00  0.00    +0.000 C 
ATOM     13  C   UNL     1      14.927   0.607   1.066  0.00  0.00    +0.000 C 
ATOM     14  C   UNL     1      16.135   0.772   0.125  0.00  0.00    +0.000 C 
ATOM     15  C   UNL     1      15.971  -0.343  -0.809  0.00  0.00    +0.000 C 
ATOM     16  C   UNL     1      14.908  -1.133  -0.539  0.00  0.00    +0.000 C 
ATOM     17  C   UNL     1      14.127  -0.742   0.711  0.00  0.00    +0.000 C 
ATOM     18  C   UNL     1      12.578  -0.584   0.619  0.00  0.00    +0.000 A 
ATOM     19  C   UNL     1      11.465  -1.515   0.656  0.00  0.00    +0.000 A 
ATOM     20  H   UNL     1      12.844   1.302   2.364  0.00  0.00    +0.000 HD
ENDBRANCH   4   7
BRANCH   5  21
ATOM     21  C   UNL     1       8.567  -1.788   3.483  0.00  0.00    +0.000 C 
ATOM     22  C   UNL     1      10.063  -1.657   3.727  0.00  0.00    +0.000 C 
ATOM     23  C   UNL     1      10.632  -3.057   3.591  0.00  0.00    +0.000 C 
ATOM     24  S   UNL     1       9.510  -4.083   4.508  0.00  0.00    +0.000 S 
ATOM     25  O   UNL     1       9.267  -5.297   3.763  0.00  0.00    +0.000 OA
ATOM     26  O   UNL     1       9.930  -4.094   5.894  0.00  0.00    +0.000 OA
ATOM     27  C   UNL     1       8.106  -3.000   4.351  0.00  0.00    +0.000 C 
ENDBRANCH   5  21
BRANCH   1  28
ATOM     28  S   UNL     1       3.957  -1.482   1.226  0.00  0.00    +0.000 S 
ATOM     29  O   UNL     1       3.504  -0.479   0.273  0.00  0.00    +0.000 OA
ATOM     30  O   UNL     1       3.713  -1.273   2.648  0.00  0.00    +0.000 OA
BRANCH  28  32
ATOM     31  C   UNL     1       1.313  -3.103   0.785  0.00  0.00    +0.000 C 
ATOM     32  S   UNL     1       3.068  -3.337   0.695  0.00  0.00    +0.000 S 
ATOM     33  O   UNL     1       3.446  -4.315   1.697  0.00  0.00    +0.000 OA
ATOM     34  O   UNL     1       3.400  -3.574  -0.716  0.00  0.00    +0.000 OA
ENDBRANCH  28  32
ENDBRANCH   1  28
TORSDOF 4
