
 OpenBabel05312116103D

108120  0  0  1  0  0  0  0  0999 V2000
   -3.4176   -0.4470   -5.0905 C   0  0  0  0  0  0  0  0  0  0  0  0
   -2.9531    0.5238   -4.2124 C   0  0  0  0  0  0  0  0  0  0  0  0
   -1.6677    0.4146   -3.6922 C   0  0  0  0  0  0  0  0  0  0  0  0
   -0.8223   -0.6465   -4.0752 C   0  0  0  0  0  0  0  0  0  0  0  0
   -1.2985   -1.6390   -4.9367 C   0  0  0  0  0  0  0  0  0  0  0  0
   -2.6055   -1.5330   -5.4267 C   0  0  0  0  0  0  0  0  0  0  0  0
   -0.5551   -2.8126   -5.1595 N   0  0  0  0  0  0  0  0  0  0  0  0
    0.8919   -2.6101   -5.2924 C   0  0  3  0  0  0  0  0  0  0  0  0
    1.5567   -3.9752   -5.4921 C   0  0  0  0  0  0  0  0  0  0  0  0
    2.3017   -4.2274   -6.6528 C   0  0  0  0  0  0  0  0  0  0  0  0
    2.7636   -5.5160   -6.9412 C   0  0  0  0  0  0  0  0  0  0  0  0
    2.5213   -6.5833   -6.0677 C   0  0  0  0  0  0  0  0  0  0  0  0
    2.8180   -7.8973   -6.5120 N   0  0  0  0  0  0  0  0  0  0  0  0
    2.8725   -8.8645   -5.4290 C   0  0  3  0  0  0  0  0  0  0  0  0
    3.3803  -10.2149   -5.9039 C   0  0  0  0  0  0  0  0  0  0  0  0
    2.7216  -10.9970   -6.8330 C   0  0  0  0  0  0  0  0  0  0  0  0
    3.2131  -12.2781   -7.1687 C   0  0  0  0  0  0  0  0  0  0  0  0
    4.3856  -12.7927   -6.5684 C   0  0  0  0  0  0  0  0  0  0  0  0
    4.7687  -14.1174   -6.8370 N   0  0  0  0  0  0  0  0  0  0  0  0
    6.1291  -14.4367   -6.3667 C   0  0  3  0  0  0  0  0  0  0  0  0
    6.5824  -15.8363   -6.7780 C   0  0  0  0  0  0  0  0  0  0  0  0
    6.2884  -16.9076   -5.9033 C   0  0  0  0  0  0  0  0  0  0  0  0
    6.8636  -18.1666   -6.0641 C   0  0  0  0  0  0  0  0  0  0  0  0
    7.7055  -18.4068   -7.1370 C   0  0  0  0  0  0  0  0  0  0  0  0
    7.9452  -17.3959   -8.0632 C   0  0  0  0  0  0  0  0  0  0  0  0
    7.3906  -16.1001   -7.9294 C   0  0  0  0  0  0  0  0  0  0  0  0
    7.7402  -15.0885   -9.0466 C   0  0  3  0  0  0  0  0  0  0  0  0
    9.2089  -14.9913   -9.1293 N   0  0  0  0  0  0  0  0  0  0  0  0
    9.7569  -14.2693  -10.1961 C   0  0  0  0  0  0  0  0  0  0  0  0
   11.1106  -13.8795  -10.1459 C   0  0  0  0  0  0  0  0  0  0  0  0
   11.7340  -13.2792  -11.2426 C   0  0  0  0  0  0  0  0  0  0  0  0
   11.0201  -13.0523  -12.4122 C   0  0  0  0  0  0  0  0  0  0  0  0
    9.6883  -13.4480  -12.4884 C   0  0  0  0  0  0  0  0  0  0  0  0
    9.0606  -14.0785  -11.3924 C   0  0  0  0  0  0  0  0  0  0  0  0
    7.6700  -14.6194  -11.5645 C   0  0  3  0  0  0  0  0  0  0  0  0
    6.5749  -13.5910  -11.6096 C   0  0  0  0  0  0  0  0  0  0  0  0
    5.4630  -14.0663  -11.0368 C   0  0  0  0  0  0  0  0  0  0  0  0
    5.6639  -15.4519  -10.5233 C   0  0  0  0  0  0  0  0  0  0  0  0
    7.1935  -15.5497  -10.4285 C   0  0  3  0  0  0  0  0  0  0  0  0
    6.1460  -14.1246   -4.8241 C   0  0  3  0  0  0  0  0  0  0  0  0
    7.4513  -14.4359   -4.0881 C   0  0  0  0  0  0  0  0  0  0  0  0
    8.3164  -13.3249   -4.5985 C   0  0  0  0  0  0  0  0  0  0  0  0
    7.5582  -12.2825   -4.9693 C   0  0  0  0  0  0  0  0  0  0  0  0
    6.1002  -12.5928   -4.7097 C   0  0  3  0  0  0  0  0  0  0  0  0
    5.0058  -12.0247   -5.5739 C   0  0  0  0  0  0  0  0  0  0  0  0
    4.5602  -10.7222   -5.3088 C   0  0  0  0  0  0  0  0  0  0  0  0
    1.4861   -8.8539   -4.7015 C   0  0  3  0  0  0  0  0  0  0  0  0
    1.3587   -9.8224   -3.5282 C   0  0  0  0  0  0  0  0  0  0  0  0
    2.2564   -9.1567   -2.5297 C   0  0  0  0  0  0  0  0  0  0  0  0
    2.2800   -7.8219   -2.7682 C   0  0  0  0  0  0  0  0  0  0  0  0
    1.4119   -7.4926   -3.9690 C   0  0  3  0  0  0  0  0  0  0  0  0
    1.8150   -6.3437   -4.8700 C   0  0  0  0  0  0  0  0  0  0  0  0
    1.3560   -5.0365   -4.5862 C   0  0  0  0  0  0  0  0  0  0  0  0
    1.4904   -1.8231   -4.1243 C   0  0  3  0  0  0  0  0  0  0  0  0
    2.6757   -0.9710   -4.5972 C   0  0  0  0  0  0  0  0  0  0  0  0
    2.6106    0.2096   -3.7051 C   0  0  0  0  0  0  0  0  0  0  0  0
    1.3557    0.4029   -3.2899 C   0  0  0  0  0  0  0  0  0  0  0  0
    0.5181   -0.8329   -3.4384 C   0  0  3  0  0  0  0  0  0  0  0  0
   -4.4256   -0.3765   -5.4894 H   0  0  0  0  0  0  0  0  0  0  0  0
   -3.5961    1.3468   -3.9104 H   0  0  0  0  0  0  0  0  0  0  0  0
   -1.3425    1.1456   -2.9546 H   0  0  0  0  0  0  0  0  0  0  0  0
   -3.0090   -2.3061   -6.0747 H   0  0  0  0  0  0  0  0  0  0  0  0
   -0.9183   -3.3337   -5.9538 H   0  0  0  0  0  0  0  0  0  0  0  0
    1.0314   -2.0421   -6.2232 H   0  0  0  0  0  0  0  0  0  0  0  0
    2.4814   -3.4372   -7.3781 H   0  0  0  0  0  0  0  0  0  0  0  0
    3.2739   -5.6946   -7.8850 H   0  0  0  0  0  0  0  0  0  0  0  0
    3.6521   -7.9170   -7.0899 H   0  0  0  0  0  0  0  0  0  0  0  0
    3.6533   -8.5012   -4.7478 H   0  0  0  0  0  0  0  0  0  0  0  0
    1.8026  -10.6565   -7.3132 H   0  0  0  0  0  0  0  0  0  0  0  0
    2.6667  -12.8902   -7.8655 H   0  0  0  0  0  0  0  0  0  0  0  0
    4.5815  -14.4059   -7.7880 H   0  0  0  0  0  0  0  0  0  0  0  0
    6.8108  -13.7509   -6.8786 H   0  0  0  0  0  0  0  0  0  0  0  0
    5.6495  -16.7494   -5.0367 H   0  0  0  0  0  0  0  0  0  0  0  0
    6.6761  -18.9483   -5.3327 H   0  0  0  0  0  0  0  0  0  0  0  0
    8.1783  -19.3768   -7.2592 H   0  0  0  0  0  0  0  0  0  0  0  0
    8.6090  -17.6135   -8.9007 H   0  0  0  0  0  0  0  0  0  0  0  0
    7.3472  -14.0983   -8.8014 H   0  0  0  0  0  0  0  0  0  0  0  0
    9.6529  -14.8008   -8.2369 H   0  0  0  0  0  0  0  0  0  0  0  0
   11.6931  -14.0679   -9.2513 H   0  0  0  0  0  0  0  0  0  0  0  0
   12.7845  -13.0044  -11.1852 H   0  0  0  0  0  0  0  0  0  0  0  0
   11.5076  -12.5997  -13.2741 H   0  0  0  0  0  0  0  0  0  0  0  0
    9.1429  -13.2964  -13.4193 H   0  0  0  0  0  0  0  0  0  0  0  0
    7.6456  -15.1828  -12.5090 H   0  0  0  0  0  0  0  0  0  0  0  0
    6.6622  -12.6349  -12.0911 H   0  0  0  0  0  0  0  0  0  0  0  0
    4.5109  -13.5378  -11.0034 H   0  0  0  0  0  0  0  0  0  0  0  0
    5.2702  -16.1730  -11.2481 H   0  0  0  0  0  0  0  0  0  0  0  0
    5.1594  -15.6211   -9.5649 H   0  0  0  0  0  0  0  0  0  0  0  0
    7.5252  -16.5734  -10.6444 H   0  0  0  0  0  0  0  0  0  0  0  0
    5.2832  -14.5797   -4.3171 H   0  0  0  0  0  0  0  0  0  0  0  0
    7.8447  -15.4339   -4.2754 H   0  0  0  0  0  0  0  0  0  0  0  0
    7.3185  -14.3227   -3.0020 H   0  0  0  0  0  0  0  0  0  0  0  0
    9.3913  -13.4152   -4.6972 H   0  0  0  0  0  0  0  0  0  0  0  0
    7.9321  -11.3814   -5.4323 H   0  0  0  0  0  0  0  0  0  0  0  0
    5.8727  -12.3028   -3.6731 H   0  0  0  0  0  0  0  0  0  0  0  0
    5.0748  -10.1382   -4.5459 H   0  0  0  0  0  0  0  0  0  0  0  0
    0.6609   -8.9810   -5.4126 H   0  0  0  0  0  0  0  0  0  0  0  0
    1.6222  -10.8611   -3.7798 H   0  0  0  0  0  0  0  0  0  0  0  0
    0.3496   -9.8218   -3.1109 H   0  0  0  0  0  0  0  0  0  0  0  0
    2.8378   -9.6873   -1.7998 H   0  0  0  0  0  0  0  0  0  0  0  0
    2.8811   -7.1151   -2.2169 H   0  0  0  0  0  0  0  0  0  0  0  0
    0.3941   -7.3144   -3.6056 H   0  0  0  0  0  0  0  0  0  0  0  0
    0.7573   -4.8606   -3.6927 H   0  0  0  0  0  0  0  0  0  0  0  0
    1.8743   -2.5007   -3.3480 H   0  0  0  0  0  0  0  0  0  0  0  0
    2.5451   -0.6069   -5.6283 H   0  0  0  0  0  0  0  0  0  0  0  0
    3.6317   -1.4890   -4.5373 H   0  0  0  0  0  0  0  0  0  0  0  0
    3.4450    0.5141   -3.0815 H   0  0  0  0  0  0  0  0  0  0  0  0
    0.9467    1.4069   -3.2508 H   0  0  0  0  0  0  0  0  0  0  0  0
    0.3169   -1.2167   -2.4247 H   0  0  0  0  0  0  0  0  0  0  0  0
  1  2  2  0  0  0  0
  1  6  1  0  0  0  0
  1 59  1  0  0  0  0
  2  3  1  0  0  0  0
  2 60  1  0  0  0  0
  3  4  2  0  0  0  0
  3 61  1  0  0  0  0
  4  5  1  0  0  0  0
  4 58  1  0  0  0  0
  5  6  2  0  0  0  0
  5  7  1  0  0  0  0
  6 62  1  0  0  0  0
  7  8  1  0  0  0  0
  7 63  1  0  0  0  0
  8  9  1  0  0  0  0
  8 54  1  0  0  0  0
  8 64  1  0  0  0  0
  9 10  2  0  0  0  0
  9 53  1  0  0  0  0
 10 11  1  0  0  0  0
 10 65  1  0  0  0  0
 11 12  2  0  0  0  0
 11 66  1  0  0  0  0
 12 13  1  0  0  0  0
 12 52  1  0  0  0  0
 13 14  1  0  0  0  0
 13 67  1  0  0  0  0
 14 15  1  0  0  0  0
 14 47  1  0  0  0  0
 14 68  1  0  0  0  0
 15 16  2  0  0  0  0
 15 46  1  0  0  0  0
 16 17  1  0  0  0  0
 16 69  1  0  0  0  0
 17 18  2  0  0  0  0
 17 70  1  0  0  0  0
 18 19  1  0  0  0  0
 18 45  1  0  0  0  0
 19 20  1  0  0  0  0
 19 71  1  0  0  0  0
 20 21  1  0  0  0  0
 20 40  1  0  0  0  0
 20 72  1  0  0  0  0
 21 22  2  0  0  0  0
 21 26  1  0  0  0  0
 22 23  1  0  0  0  0
 22 73  1  0  0  0  0
 23 24  2  0  0  0  0
 23 74  1  0  0  0  0
 24 25  1  0  0  0  0
 24 75  1  0  0  0  0
 25 26  2  0  0  0  0
 25 76  1  0  0  0  0
 26 27  1  0  0  0  0
 27 28  1  0  0  0  0
 27 39  1  0  0  0  0
 27 77  1  0  0  0  0
 28 29  1  0  0  0  0
 28 78  1  0  0  0  0
 29 30  2  0  0  0  0
 29 34  1  0  0  0  0
 30 31  1  0  0  0  0
 30 79  1  0  0  0  0
 31 32  2  0  0  0  0
 31 80  1  0  0  0  0
 32 33  1  0  0  0  0
 32 81  1  0  0  0  0
 33 34  2  0  0  0  0
 33 82  1  0  0  0  0
 34 35  1  0  0  0  0
 35 36  1  0  0  0  0
 35 39  1  0  0  0  0
 35 83  1  0  0  0  0
 36 37  2  0  0  0  0
 36 84  1  0  0  0  0
 37 38  1  0  0  0  0
 37 85  1  0  0  0  0
 38 39  1  0  0  0  0
 38 86  1  0  0  0  0
 38 87  1  0  0  0  0
 39 88  1  0  0  0  0
 40 41  1  0  0  0  0
 40 44  1  0  0  0  0
 40 89  1  0  0  0  0
 41 42  1  0  0  0  0
 41 90  1  0  0  0  0
 41 91  1  0  0  0  0
 42 43  2  0  0  0  0
 42 92  1  0  0  0  0
 43 44  1  0  0  0  0
 43 93  1  0  0  0  0
 44 45  1  0  0  0  0
 44 94  1  0  0  0  0
 45 46  2  0  0  0  0
 46 95  1  0  0  0  0
 47 48  1  0  0  0  0
 47 51  1  0  0  0  0
 47 96  1  0  0  0  0
 48 49  1  0  0  0  0
 48 97  1  0  0  0  0
 48 98  1  0  0  0  0
 49 50  2  0  0  0  0
 49 99  1  0  0  0  0
 50 51  1  0  0  0  0
 50100  1  0  0  0  0
 51 52  1  0  0  0  0
 51101  1  0  0  0  0
 52 53  2  0  0  0  0
 53102  1  0  0  0  0
 54 55  1  0  0  0  0
 54 58  1  0  0  0  0
 54103  1  0  0  0  0
 55 56  1  0  0  0  0
 55104  1  0  0  0  0
 55105  1  0  0  0  0
 56 57  2  0  0  0  0
 56106  1  0  0  0  0
 57 58  1  0  0  0  0
 57107  1  0  0  0  0
 58108  1  0  0  0  0
M  END
