REMARK  Name = 
REMARK  6 active torsions:
REMARK  status: ('A' for Active; 'I' for Inactive)
REMARK    1  A    between atoms: C_2  and  C_3
REMARK    2  A    between atoms: C_5  and  N_6
REMARK    3  A    between atoms: C_11  and  C_12
REMARK    4  A    between atoms: C_12  and  O_14
REMARK    5  A    between atoms: O_14  and  C_15
REMARK    6  A    between atoms: C_15  and  C_16
REMARK                            x       y       z     vdW  Elec       q    Type
REMARK                         _______ _______ _______ _____ _____    ______ ____
ROOT
ATOM      1  C   UNL     1      -0.461  -0.064  -0.026  0.00  0.00    +0.000 A 
ATOM      2  C   UNL     1       0.299  -1.239   0.008  0.00  0.00    +0.000 A 
ATOM      3  C   UNL     1       1.730  -1.250   0.032  0.00  0.00    +0.000 A 
ATOM      4  C   UNL     1       2.374   0.014  -0.002  0.00  0.00    +0.000 A 
ATOM      5  C   UNL     1       1.593   1.195  -0.017  0.00  0.00    +0.000 A 
ATOM      6  C   UNL     1       0.196   1.153  -0.032  0.00  0.00    +0.000 A 
ENDROOT
BRANCH   3   7
ATOM      7  N   UNL     1       2.367  -2.479   0.072  0.00  0.00    +0.000 N 
ATOM      8  C   UNL     1       3.698  -2.729  -0.467  0.00  0.00    +0.000 C 
ATOM      9  C   UNL     1       3.677  -4.201  -0.838  0.00  0.00    +0.000 C 
ATOM     10  C   UNL     1       2.803  -4.797   0.252  0.00  0.00    +0.000 C 
ATOM     11  C   UNL     1       1.724  -3.737   0.462  0.00  0.00    +0.000 C 
ENDBRANCH   3   7
BRANCH   1  13
ATOM     12  C   UNL     1      -3.104  -0.119  -0.017  0.00  0.00    +0.000 C 
ATOM     13  C   UNL     1      -1.901  -0.111  -0.032  0.00  0.00    +0.000 C 
ENDBRANCH   1  13
BRANCH   4  14
ATOM     14  C   UNL     1       3.874   0.224   0.047  0.00  0.00    +0.000 C 
ATOM     15  O   UNL     1       4.694  -0.450   0.635  0.00  0.00    +0.000 OA
BRANCH  14  16
ATOM     16  O   UNL     1       4.198   1.322  -0.691  0.00  0.00    +0.000 OA
BRANCH  16  17
ATOM     17  C   UNL     1       5.593   1.647  -0.706  0.00  0.00    +0.000 C 
ATOM     18  C   UNL     1       6.335   0.883  -1.786  0.00  0.00    +0.000 C 
ATOM     19  F   UNL     1       5.657   2.971  -1.029  0.00  0.00    +0.000 F 
ENDBRANCH  16  17
ENDBRANCH  14  16
ENDBRANCH   4  14
TORSDOF 5
