
 OpenBabel06022115293D

 58 62  0  0  1  0  0  0  0  0999 V2000
    1.3133   -3.1030    0.7849 C   0  0  0  0  0  0  0  0  0  0  0  0
    3.0676   -3.3375    0.6945 S   0  0  0  0  0  0  0  0  0  0  0  0
    3.4465   -4.3151    1.6968 O   0  0  0  0  0  0  0  0  0  0  0  0
    3.3998   -3.5744   -0.7158 O   0  0  0  0  0  0  0  0  0  0  0  0
    3.9565   -1.4825    1.2259 S   0  0  0  0  0  0  0  0  0  0  0  0
    3.5042   -0.4789    0.2728 O   0  0  0  0  0  0  0  0  0  0  0  0
    3.7130   -1.2726    2.6478 O   0  0  0  0  0  0  0  0  0  0  0  0
    5.7337   -1.6616    1.0069 C   0  0  0  0  0  0  0  0  0  0  0  0
    6.3355   -1.4616   -0.2173 C   0  0  0  0  0  0  0  0  0  0  0  0
    7.7493   -1.5205   -0.3238 C   0  0  0  0  0  0  0  0  0  0  0  0
    8.6723   -1.6358    0.7802 C   0  0  0  0  0  0  0  0  0  0  0  0
   10.0914   -1.0538    0.4794 C   0  0  0  0  0  0  0  0  0  0  0  0
    9.9951    0.2332   -0.0876 C   0  0  0  0  0  0  0  0  0  0  0  0
   11.0260    1.1305   -0.0375 C   0  0  0  0  0  0  0  0  0  0  0  0
   12.1744    0.7434    0.5989 C   0  0  0  0  0  0  0  0  0  0  0  0
   12.8071    1.6976    1.4194 N   0  0  0  0  0  0  0  0  0  0  0  0
   14.1239    1.8897    0.9038 C   0  0  0  0  0  0  0  0  0  0  0  0
   14.9269    0.6071    1.0656 C   0  0  3  0  0  0  0  0  0  0  0  0
   16.1352    0.7716    0.1252 C   0  0  0  0  0  0  0  0  0  0  0  0
   15.9709   -0.3430   -0.8091 C   0  0  0  0  0  0  0  0  0  0  0  0
   14.9078   -1.1328   -0.5389 C   0  0  0  0  0  0  0  0  0  0  0  0
   14.1270   -0.7421    0.7109 C   0  0  3  0  0  0  0  0  0  0  0  0
   12.5783   -0.5837    0.6187 C   0  0  0  0  0  0  0  0  0  0  0  0
   11.4650   -1.5151    0.6559 C   0  0  0  0  0  0  0  0  0  0  0  0
    8.0170   -1.8248    2.0520 C   0  0  0  0  0  0  0  0  0  0  0  0
    8.5674   -1.7884    3.4830 C   0  0  3  0  0  0  0  0  0  0  0  0
   10.0635   -1.6573    3.7272 C   0  0  0  0  0  0  0  0  0  0  0  0
   10.6316   -3.0572    3.5909 C   0  0  0  0  0  0  0  0  0  0  0  0
    9.5098   -4.0829    4.5076 S   0  0  0  0  0  0  0  0  0  0  0  0
    9.2670   -5.2972    3.7627 O   0  0  0  0  0  0  0  0  0  0  0  0
    9.9295   -4.0937    5.8944 O   0  0  0  0  0  0  0  0  0  0  0  0
    8.1062   -3.0000    4.3515 C   0  0  0  0  0  0  0  0  0  0  0  0
    6.5602   -1.8572    2.1070 C   0  0  0  0  0  0  0  0  0  0  0  0
    0.8285   -4.0396    0.4985 H   0  0  0  0  0  0  0  0  0  0  0  0
    1.0120   -2.3132    0.0878 H   0  0  0  0  0  0  0  0  0  0  0  0
    1.0316   -2.8498    1.8113 H   0  0  0  0  0  0  0  0  0  0  0  0
    5.7410   -1.1913   -1.0893 H   0  0  0  0  0  0  0  0  0  0  0  0
    8.1490   -1.3032   -1.3182 H   0  0  0  0  0  0  0  0  0  0  0  0
    9.0540    0.6250   -0.4615 H   0  0  0  0  0  0  0  0  0  0  0  0
   10.8728    2.1660   -0.3097 H   0  0  0  0  0  0  0  0  0  0  0  0
   12.8437    1.3018    2.3635 H   0  0  0  0  0  0  0  0  0  0  0  0
   14.5974    2.7116    1.4512 H   0  0  0  0  0  0  0  0  0  0  0  0
   14.0474    2.2180   -0.1422 H   0  0  0  0  0  0  0  0  0  0  0  0
   15.2736    0.5395    2.1058 H   0  0  0  0  0  0  0  0  0  0  0  0
   17.0841    0.7509    0.6760 H   0  0  0  0  0  0  0  0  0  0  0  0
   16.1261    1.7266   -0.4243 H   0  0  0  0  0  0  0  0  0  0  0  0
   16.6756   -0.4966   -1.6333 H   0  0  0  0  0  0  0  0  0  0  0  0
   14.7180   -2.0243   -1.1156 H   0  0  0  0  0  0  0  0  0  0  0  0
   14.3631   -1.4917    1.4860 H   0  0  0  0  0  0  0  0  0  0  0  0
   11.6674   -2.5645    0.8630 H   0  0  0  0  0  0  0  0  0  0  0  0
    8.1034   -0.8892    3.9205 H   0  0  0  0  0  0  0  0  0  0  0  0
   10.2123   -1.3117    4.7603 H   0  0  0  0  0  0  0  0  0  0  0  0
   10.5402   -0.9148    3.0917 H   0  0  0  0  0  0  0  0  0  0  0  0
   11.6396   -3.1492    3.9942 H   0  0  0  0  0  0  0  0  0  0  0  0
   10.5928   -3.4150    2.5615 H   0  0  0  0  0  0  0  0  0  0  0  0
    7.8371   -2.6696    5.3611 H   0  0  0  0  0  0  0  0  0  0  0  0
    7.2794   -3.5874    3.9414 H   0  0  0  0  0  0  0  0  0  0  0  0
    6.0660   -1.9414    3.0796 H   0  0  0  0  0  0  0  0  0  0  0  0
  1  2  1  0  0  0  0
  1 34  1  0  0  0  0
  1 35  1  0  0  0  0
  1 36  1  0  0  0  0
  2  3  2  0  0  0  0
  2  4  2  0  0  0  0
  2  5  1  0  0  0  0
  5  6  2  0  0  0  0
  5  7  2  0  0  0  0
  5  8  1  0  0  0  0
  8  9  2  0  0  0  0
  8 33  1  0  0  0  0
  9 10  1  0  0  0  0
  9 37  1  0  0  0  0
 10 11  2  0  0  0  0
 10 38  1  0  0  0  0
 11 12  1  0  0  0  0
 11 25  1  0  0  0  0
 12 13  2  0  0  0  0
 12 24  1  0  0  0  0
 13 14  1  0  0  0  0
 13 39  1  0  0  0  0
 14 15  2  0  0  0  0
 14 40  1  0  0  0  0
 15 16  1  0  0  0  0
 15 23  1  0  0  0  0
 16 17  1  0  0  0  0
 16 41  1  0  0  0  0
 17 18  1  0  0  0  0
 17 42  1  0  0  0  0
 17 43  1  0  0  0  0
 18 19  1  0  0  0  0
 18 22  1  0  0  0  0
 18 44  1  0  0  0  0
 19 20  1  0  0  0  0
 19 45  1  0  0  0  0
 19 46  1  0  0  0  0
 20 21  2  0  0  0  0
 20 47  1  0  0  0  0
 21 22  1  0  0  0  0
 21 48  1  0  0  0  0
 22 23  1  0  0  0  0
 22 49  1  0  0  0  0
 23 24  2  0  0  0  0
 24 50  1  0  0  0  0
 25 26  1  0  0  0  0
 25 33  2  0  0  0  0
 26 27  1  0  0  0  0
 26 32  1  0  0  0  0
 26 51  1  0  0  0  0
 27 28  1  0  0  0  0
 27 52  1  0  0  0  0
 27 53  1  0  0  0  0
 28 29  1  0  0  0  0
 28 54  1  0  0  0  0
 28 55  1  0  0  0  0
 29 30  2  0  0  0  0
 29 31  2  0  0  0  0
 29 32  1  0  0  0  0
 32 56  1  0  0  0  0
 32 57  1  0  0  0  0
 33 58  1  0  0  0  0
M  END
