REMARK  Name = 
REMARK  5 active torsions:
REMARK  status: ('A' for Active; 'I' for Inactive)
REMARK    1  A    between atoms: C_2  and  C_3
REMARK    2  A    between atoms: C_4  and  C_5
REMARK    3  A    between atoms: C_8  and  C_9
REMARK    4  A    between atoms: C_20  and  N_21
REMARK    5  A    between atoms: N_21  and  N_22
REMARK                            x       y       z     vdW  Elec       q    Type
REMARK                         _______ _______ _______ _____ _____    ______ ____
ROOT
ATOM      1  C   UNL     1       1.447   1.860   1.944  0.00  0.00    +0.000 A 
ATOM      2  C   UNL     1       0.226   2.490   2.063  0.00  0.00    +0.000 A 
ATOM      3  S   UNL     1      -0.704   1.700   3.282  0.00  0.00    +0.000 S 
ATOM      4  C   UNL     1       0.607   0.645   3.586  0.00  0.00    +0.000 A 
ATOM      5  N   UNL     1       1.677   0.871   2.863  0.00  0.00    +0.000 NA
ENDROOT
BRANCH   4   6
ATOM      6  C   UNL     1       0.649  -0.516   4.518  0.00  0.00    +0.000 A 
ATOM      7  C   UNL     1       1.820  -1.229   4.701  0.00  0.00    +0.000 A 
ATOM      8  N   UNL     1       1.549  -2.250   5.558  0.00  0.00    +0.000 N 
ATOM      9  C   UNL     1       0.186  -2.397   5.649  0.00  0.00    +0.000 A 
ATOM     10  C   UNL     1      -0.572  -3.494   6.060  0.00  0.00    +0.000 A 
ATOM     11  C   UNL     1      -1.956  -3.331   6.097  0.00  0.00    +0.000 A 
ATOM     12  C   UNL     1      -2.539  -2.091   5.845  0.00  0.00    +0.000 A 
ATOM     13  C   UNL     1      -1.766  -1.007   5.414  0.00  0.00    +0.000 A 
ATOM     14  C   UNL     1      -0.386  -1.196   5.214  0.00  0.00    +0.000 A 
ATOM     15  H   UNL     1       2.233  -2.875   5.960  0.00  0.00    +0.000 HD
ENDBRANCH   4   6
BRANCH   1  17
ATOM     16  C   UNL     1       3.274   1.223   0.357  0.00  0.00    +0.000 A 
ATOM     17  C   UNL     1       2.531   2.217   1.040  0.00  0.00    +0.000 A 
ATOM     18  C   UNL     1       2.958   3.554   1.030  0.00  0.00    +0.000 A 
ATOM     19  C   UNL     1       4.141   3.923   0.390  0.00  0.00    +0.000 A 
ATOM     20  C   UNL     1       4.887   2.927  -0.267  0.00  0.00    +0.000 A 
ATOM     21  C   UNL     1       4.443   1.600  -0.298  0.00  0.00    +0.000 A 
BRANCH  16  23
ATOM     22  C   UNL     1       2.182  -0.834  -0.501  0.00  0.00    +0.000 C 
ATOM     23  C   UNL     1       2.946  -0.213   0.404  0.00  0.00    +0.000 C 
ENDBRANCH  16  23
BRANCH  19  24
ATOM     24  N   UNL     1       4.705   5.220   0.521  0.00  0.00    +0.000 N 
ATOM     25  H   UNL     1       5.482   5.381  -0.124  0.00  0.00    +0.000 HD
BRANCH  24  26
ATOM     26  N   UNL     1       3.877   6.327   0.751  0.00  0.00    +0.000 NA
ATOM     27  H   UNL     1       3.329   6.209   1.604  0.00  0.00    +0.000 HD
ATOM     28  H   UNL     1       3.214   6.452  -0.017  0.00  0.00    +0.000 HD
ENDBRANCH  24  26
ENDBRANCH  19  24
ENDBRANCH   1  17
TORSDOF 5
