
 OpenBabel06022115293D

 29 30  0  0  0  0  0  0  0  0999 V2000
    1.4382    0.3924    2.5845 N   0  0  0  0  0  0  0  0  0  0  0  0
    2.8019    0.4062    2.4668 C   0  0  0  0  0  0  0  0  0  0  0  0
    3.5407    0.0224    3.3571 O   0  0  0  0  0  0  0  0  0  0  0  0
    3.3113    0.9440    1.1139 C   0  0  0  0  0  0  0  0  0  0  0  0
    2.4724    1.2586    0.2749 O   0  0  0  0  0  0  0  0  0  0  0  0
    4.7767    1.0722    0.8671 C   0  0  0  0  0  0  0  0  0  0  0  0
    5.3192    0.8488   -0.4171 C   0  0  0  0  0  0  0  0  0  0  0  0
    4.4890    0.5714   -1.6567 C   0  0  0  0  0  0  0  0  0  0  0  0
    3.7509   -0.7340   -1.8230 C   0  0  0  0  0  0  0  0  0  0  0  0
    4.9305   -0.4378   -2.6941 C   0  0  0  0  0  0  0  0  0  0  0  0
    6.7170    0.9712   -0.5353 C   0  0  0  0  0  0  0  0  0  0  0  0
    7.5411    1.3245    0.5435 C   0  0  0  0  0  0  0  0  0  0  0  0
    6.9940    1.6027    1.7870 C   0  0  0  0  0  0  0  0  0  0  0  0
    7.7057    2.0269    2.9278 N   0  0  0  0  0  0  0  0  0  0  0  0
    9.0289    2.2993    3.1679 C   0  0  0  0  0  0  0  0  0  0  0  0
   10.3792    2.2094    2.2066 S   0  0  0  0  0  0  0  0  0  0  0  0
    9.3310    2.8473    4.7791 Cl  0  0  0  0  0  0  0  0  0  0  0  0
    5.6075    1.4706    1.9352 C   0  0  0  0  0  0  0  0  0  0  0  0
    1.0123    0.0151    3.4161 H   0  0  0  0  0  0  0  0  0  0  0  0
    0.8646    0.6571    1.7900 H   0  0  0  0  0  0  0  0  0  0  0  0
    3.9859    1.4520   -2.0571 H   0  0  0  0  0  0  0  0  0  0  0  0
    2.7621   -0.6905   -2.2708 H   0  0  0  0  0  0  0  0  0  0  0  0
    3.8619   -1.5054   -1.0731 H   0  0  0  0  0  0  0  0  0  0  0  0
    4.7481   -0.1984   -3.7374 H   0  0  0  0  0  0  0  0  0  0  0  0
    5.8259   -1.0278   -2.5337 H   0  0  0  0  0  0  0  0  0  0  0  0
    7.1884    0.8030   -1.5033 H   0  0  0  0  0  0  0  0  0  0  0  0
    8.6028    1.3842    0.3422 H   0  0  0  0  0  0  0  0  0  0  0  0
    7.1400    2.1837    3.7558 H   0  0  0  0  0  0  0  0  0  0  0  0
    5.1607    1.7033    2.8997 H   0  0  0  0  0  0  0  0  0  0  0  0
  1  2  1  0  0  0  0
  1 19  1  0  0  0  0
  1 20  1  0  0  0  0
  2  3  2  0  0  0  0
  2  4  1  0  0  0  0
  4  5  2  0  0  0  0
  4  6  1  0  0  0  0
  6  7  2  0  0  0  0
  6 18  1  0  0  0  0
  7  8  1  0  0  0  0
  7 11  1  0  0  0  0
  8  9  1  0  0  0  0
  8 10  1  0  0  0  0
  8 21  1  0  0  0  0
  9 10  1  0  0  0  0
  9 22  1  0  0  0  0
  9 23  1  0  0  0  0
 10 24  1  0  0  0  0
 10 25  1  0  0  0  0
 11 12  2  0  0  0  0
 11 26  1  0  0  0  0
 12 13  1  0  0  0  0
 12 27  1  0  0  0  0
 13 14  1  0  0  0  0
 13 18  2  0  0  0  0
 14 15  1  0  0  0  0
 14 28  1  0  0  0  0
 15 16  2  0  0  0  0
 15 17  1  0  0  0  0
 18 29  1  0  0  0  0
M  END
