REMARK  Name = 
REMARK  4 active torsions:
REMARK  status: ('A' for Active; 'I' for Inactive)
REMARK    1  A    between atoms: C_8  and  C_9
REMARK    2  A    between atoms: C_14  and  C_15
REMARK    3  A    between atoms: C_20  and  C_21
REMARK    4  A    between atoms: C_26  and  C_27
REMARK                            x       y       z     vdW  Elec       q    Type
REMARK                         _______ _______ _______ _____ _____    ______ ____
ROOT
ATOM      1  C   UNL     1       3.380 -10.215  -5.904  0.00  0.00    +0.000 A 
ATOM      2  C   UNL     1       2.722 -10.997  -6.833  0.00  0.00    +0.000 A 
ATOM      3  C   UNL     1       3.213 -12.278  -7.169  0.00  0.00    +0.000 A 
ATOM      4  C   UNL     1       4.386 -12.793  -6.568  0.00  0.00    +0.000 A 
ATOM      5  N   UNL     1       4.769 -14.117  -6.837  0.00  0.00    +0.000 N 
ATOM      6  C   UNL     1       6.129 -14.437  -6.367  0.00  0.00    +0.000 C 
ATOM      7  C   UNL     1       6.146 -14.125  -4.824  0.00  0.00    +0.000 C 
ATOM      8  C   UNL     1       7.451 -14.436  -4.088  0.00  0.00    +0.000 C 
ATOM      9  C   UNL     1       8.316 -13.325  -4.598  0.00  0.00    +0.000 C 
ATOM     10  C   UNL     1       7.558 -12.283  -4.969  0.00  0.00    +0.000 C 
ATOM     11  C   UNL     1       6.100 -12.593  -4.710  0.00  0.00    +0.000 C 
ATOM     12  C   UNL     1       5.006 -12.025  -5.574  0.00  0.00    +0.000 A 
ATOM     13  C   UNL     1       4.560 -10.722  -5.309  0.00  0.00    +0.000 A 
ATOM     14  H   UNL     1       4.582 -14.406  -7.788  0.00  0.00    +0.000 HD
ENDROOT
BRANCH   1  20
ATOM     15  C   UNL     1       1.557  -3.975  -5.492  0.00  0.00    +0.000 A 
ATOM     16  C   UNL     1       2.302  -4.227  -6.653  0.00  0.00    +0.000 A 
ATOM     17  C   UNL     1       2.764  -5.516  -6.941  0.00  0.00    +0.000 A 
ATOM     18  C   UNL     1       2.521  -6.583  -6.068  0.00  0.00    +0.000 A 
ATOM     19  N   UNL     1       2.818  -7.897  -6.512  0.00  0.00    +0.000 N 
ATOM     20  C   UNL     1       2.873  -8.864  -5.429  0.00  0.00    +0.000 C 
ATOM     21  C   UNL     1       1.486  -8.854  -4.702  0.00  0.00    +0.000 C 
ATOM     22  C   UNL     1       1.359  -9.822  -3.528  0.00  0.00    +0.000 C 
ATOM     23  C   UNL     1       2.256  -9.157  -2.530  0.00  0.00    +0.000 C 
ATOM     24  C   UNL     1       2.280  -7.822  -2.768  0.00  0.00    +0.000 C 
ATOM     25  C   UNL     1       1.412  -7.493  -3.969  0.00  0.00    +0.000 C 
ATOM     26  C   UNL     1       1.815  -6.344  -4.870  0.00  0.00    +0.000 A 
ATOM     27  C   UNL     1       1.356  -5.037  -4.586  0.00  0.00    +0.000 A 
ATOM     28  H   UNL     1       3.652  -7.917  -7.090  0.00  0.00    +0.000 HD
BRANCH  15  36
ATOM     29  C   UNL     1      -3.418  -0.447  -5.090  0.00  0.00    +0.000 A 
ATOM     30  C   UNL     1      -2.953   0.524  -4.212  0.00  0.00    +0.000 A 
ATOM     31  C   UNL     1      -1.668   0.415  -3.692  0.00  0.00    +0.000 A 
ATOM     32  C   UNL     1      -0.822  -0.646  -4.075  0.00  0.00    +0.000 A 
ATOM     33  C   UNL     1      -1.298  -1.639  -4.937  0.00  0.00    +0.000 A 
ATOM     34  C   UNL     1      -2.606  -1.533  -5.427  0.00  0.00    +0.000 A 
ATOM     35  N   UNL     1      -0.555  -2.813  -5.160  0.00  0.00    +0.000 N 
ATOM     36  C   UNL     1       0.892  -2.610  -5.292  0.00  0.00    +0.000 C 
ATOM     37  C   UNL     1       1.490  -1.823  -4.124  0.00  0.00    +0.000 C 
ATOM     38  C   UNL     1       2.676  -0.971  -4.597  0.00  0.00    +0.000 C 
ATOM     39  C   UNL     1       2.611   0.210  -3.705  0.00  0.00    +0.000 C 
ATOM     40  C   UNL     1       1.356   0.403  -3.290  0.00  0.00    +0.000 C 
ATOM     41  C   UNL     1       0.518  -0.833  -3.438  0.00  0.00    +0.000 C 
ATOM     42  H   UNL     1      -0.918  -3.334  -5.954  0.00  0.00    +0.000 HD
ENDBRANCH  15  36
ENDBRANCH   1  20
BRANCH   6  43
ATOM     43  C   UNL     1       6.582 -15.836  -6.778  0.00  0.00    +0.000 A 
ATOM     44  C   UNL     1       6.288 -16.908  -5.903  0.00  0.00    +0.000 A 
ATOM     45  C   UNL     1       6.864 -18.167  -6.064  0.00  0.00    +0.000 A 
ATOM     46  C   UNL     1       7.705 -18.407  -7.137  0.00  0.00    +0.000 A 
ATOM     47  C   UNL     1       7.945 -17.396  -8.063  0.00  0.00    +0.000 A 
ATOM     48  C   UNL     1       7.391 -16.100  -7.929  0.00  0.00    +0.000 A 
BRANCH  48  49
ATOM     49  C   UNL     1       7.740 -15.088  -9.047  0.00  0.00    +0.000 C 
ATOM     50  N   UNL     1       9.209 -14.991  -9.129  0.00  0.00    +0.000 N 
ATOM     51  C   UNL     1       9.757 -14.269 -10.196  0.00  0.00    +0.000 A 
ATOM     52  C   UNL     1      11.111 -13.880 -10.146  0.00  0.00    +0.000 A 
ATOM     53  C   UNL     1      11.734 -13.279 -11.243  0.00  0.00    +0.000 A 
ATOM     54  C   UNL     1      11.020 -13.052 -12.412  0.00  0.00    +0.000 A 
ATOM     55  C   UNL     1       9.688 -13.448 -12.488  0.00  0.00    +0.000 A 
ATOM     56  C   UNL     1       9.061 -14.079 -11.392  0.00  0.00    +0.000 A 
ATOM     57  C   UNL     1       7.670 -14.619 -11.565  0.00  0.00    +0.000 C 
ATOM     58  C   UNL     1       6.575 -13.591 -11.610  0.00  0.00    +0.000 C 
ATOM     59  C   UNL     1       5.463 -14.066 -11.037  0.00  0.00    +0.000 C 
ATOM     60  C   UNL     1       5.664 -15.452 -10.523  0.00  0.00    +0.000 C 
ATOM     61  C   UNL     1       7.194 -15.550 -10.428  0.00  0.00    +0.000 C 
ATOM     62  H   UNL     1       9.653 -14.801  -8.237  0.00  0.00    +0.000 HD
ENDBRANCH  48  49
ENDBRANCH   6  43
TORSDOF 4
