REMARK  Name = 
REMARK  9 active torsions:
REMARK  status: ('A' for Active; 'I' for Inactive)
REMARK    1  A    between atoms: C_2  and  C_3
REMARK    2  A    between atoms: C_6  and  O_7
REMARK    3  A    between atoms: O_7  and  C_8
REMARK    4  A    between atoms: C_8  and  C_9
REMARK    5  A    between atoms: C_8  and  C_10
REMARK    6  A    between atoms: C_8  and  N_11
REMARK    7  A    between atoms: N_11  and  C_12
REMARK    8  A    between atoms: N_11  and  C_13
REMARK    9  A    between atoms: C_13  and  C_14
REMARK                            x       y       z     vdW  Elec       q    Type
REMARK                         _______ _______ _______ _____ _____    ______ ____
ROOT
ATOM      1  C   UNL     1       4.266  -1.392   0.190  0.00  0.00    +0.000 C 
ATOM      2  C   UNL     1       3.794  -2.167   1.452  0.00  0.00    +0.000 C 
ATOM      3  C   UNL     1       4.213  -2.234  -1.106  0.00  0.00    +0.000 C 
ENDROOT
BRANCH   1   4
ATOM      4  N   UNL     1       5.691  -0.938   0.390  0.00  0.00    +0.000 NA
ATOM      5  C   UNL     1       5.801  -0.034   1.542  0.00  0.00    +0.000 C 
BRANCH   4   6
ATOM      6  C   UNL     1       6.696  -2.029   0.419  0.00  0.00    +0.000 C 
BRANCH   6   7
ATOM      7  C   UNL     1       8.182  -1.627   0.656  0.00  0.00    +0.000 C 
ATOM      8  C   UNL     1       8.691  -0.707  -0.467  0.00  0.00    +0.000 C 
ATOM      9  C   UNL     1      10.178  -0.378  -0.373  0.00  0.00    +0.000 C 
ATOM     10  C   UNL     1      11.065  -1.358  -1.136  0.00  0.00    +0.000 C 
ATOM     11  C   UNL     1      11.194  -2.732  -0.491  0.00  0.00    +0.000 C 
ATOM     12  C   UNL     1       9.859  -3.440  -0.262  0.00  0.00    +0.000 C 
ATOM     13  C   UNL     1       9.065  -2.873   0.918  0.00  0.00    +0.000 C 
ENDBRANCH   6   7
ENDBRANCH   4   6
ENDBRANCH   1   4
BRANCH   1  14
ATOM     14  O   UNL     1       3.471  -0.200  -0.025  0.00  0.00    +0.000 OA
BRANCH  14  18
ATOM     15  C   UNL     1      -0.635   0.141  -0.594  0.00  0.00    +0.000 A 
ATOM     16  C   UNL     1      -0.103  -1.128  -0.401  0.00  0.00    +0.000 A 
ATOM     17  C   UNL     1       1.269  -1.286  -0.235  0.00  0.00    +0.000 A 
ATOM     18  C   UNL     1       2.124  -0.186  -0.220  0.00  0.00    +0.000 A 
ATOM     19  C   UNL     1       1.576   1.085  -0.425  0.00  0.00    +0.000 A 
ATOM     20  C   UNL     1       0.201   1.252  -0.612  0.00  0.00    +0.000 A 
BRANCH  15  22
ATOM     21  C   UNL     1      -3.245   0.267  -0.869  0.00  0.00    +0.000 C 
ATOM     22  C   UNL     1      -2.051   0.268  -0.754  0.00  0.00    +0.000 C 
ENDBRANCH  15  22
ENDBRANCH  14  18
ENDBRANCH   1  14
TORSDOF 6
