
 OpenBabel05312116103D

108120  0  0  1  0  0  0  0  0999 V2000
    1.9330   -0.0954    0.4380 C   0  0  0  0  0  0  0  0  0  0  0  0
    1.1547    0.8628   -0.1980 C   0  0  0  0  0  0  0  0  0  0  0  0
    0.4370    0.5149   -1.3393 C   0  0  0  0  0  0  0  0  0  0  0  0
    0.4605   -0.8006   -1.8365 C   0  0  0  0  0  0  0  0  0  0  0  0
    1.2502   -1.7687   -1.2142 C   0  0  0  0  0  0  0  0  0  0  0  0
    2.0034   -1.3911   -0.0790 C   0  0  0  0  0  0  0  0  0  0  0  0
    1.4502   -3.0263   -1.7913 N   0  0  0  0  0  0  0  0  0  0  0  0
    0.2597   -3.6150   -2.4180 C   0  0  3  0  0  0  0  0  0  0  0  0
    0.6669   -4.9651   -3.0288 C   0  0  0  0  0  0  0  0  0  0  0  0
    0.0521   -6.1503   -2.5956 C   0  0  0  0  0  0  0  0  0  0  0  0
    0.5085   -7.4082   -3.0210 C   0  0  0  0  0  0  0  0  0  0  0  0
    1.5812   -7.5393   -3.9085 C   0  0  0  0  0  0  0  0  0  0  0  0
    2.1019   -8.8259   -4.1944 N   0  0  0  0  0  0  0  0  0  0  0  0
    3.0037   -8.8369   -5.3521 C   0  0  3  0  0  0  0  0  0  0  0  0
    3.3841  -10.2526   -5.7894 C   0  0  0  0  0  0  0  0  0  0  0  0
    4.5570  -10.8115   -5.2236 C   0  0  0  0  0  0  0  0  0  0  0  0
    5.1174  -11.9946   -5.7024 C   0  0  0  0  0  0  0  0  0  0  0  0
    4.4926  -12.6882   -6.7251 C   0  0  0  0  0  0  0  0  0  0  0  0
    3.2985  -12.2092   -7.2594 C   0  0  0  0  0  0  0  0  0  0  0  0
    2.7068  -10.9968   -6.8144 C   0  0  0  0  0  0  0  0  0  0  0  0
    1.3874  -10.5927   -7.5205 C   0  0  3  0  0  0  0  0  0  0  0  0
    1.6384  -10.4774   -8.9674 N   0  0  0  0  0  0  0  0  0  0  0  0
    0.5875  -10.3927   -9.8767 C   0  0  0  0  0  0  0  0  0  0  0  0
    0.8011   -9.9900  -11.2032 C   0  0  0  0  0  0  0  0  0  0  0  0
   -0.2414   -9.9671  -12.1469 C   0  0  0  0  0  0  0  0  0  0  0  0
   -1.5351  -10.3716  -11.7954 C   0  0  0  0  0  0  0  0  0  0  0  0
   -2.6933  -10.3860  -12.7727 C   0  0  3  0  0  0  0  0  0  0  0  0
   -2.9828   -9.0081  -13.1788 N   0  0  0  0  0  0  0  0  0  0  0  0
   -4.0703   -8.8684  -14.0593 C   0  0  0  0  0  0  0  0  0  0  0  0
   -4.6781   -7.6136  -14.1998 C   0  0  0  0  0  0  0  0  0  0  0  0
   -5.6885   -7.4040  -15.1411 C   0  0  0  0  0  0  0  0  0  0  0  0
   -6.0930   -8.4449  -15.9697 C   0  0  0  0  0  0  0  0  0  0  0  0
   -5.4788   -9.6908  -15.8630 C   0  0  0  0  0  0  0  0  0  0  0  0
   -4.4535   -9.9075  -14.9244 C   0  0  0  0  0  0  0  0  0  0  0  0
   -3.7338  -11.2303  -14.9111 C   0  0  3  0  0  0  0  0  0  0  0  0
   -4.5050  -12.3928  -14.3355 C   0  0  0  0  0  0  0  0  0  0  0  0
   -3.6860  -13.2379  -13.6955 C   0  0  0  0  0  0  0  0  0  0  0  0
   -2.2733  -12.7415  -13.7268 C   0  0  0  0  0  0  0  0  0  0  0  0
   -2.4580  -11.2478  -14.0413 C   0  0  3  0  0  0  0  0  0  0  0  0
   -1.7453  -10.7791  -10.4750 C   0  0  0  0  0  0  0  0  0  0  0  0
   -0.7035  -10.7943   -9.5228 C   0  0  0  0  0  0  0  0  0  0  0  0
   -0.9853  -11.3512   -8.1629 C   0  0  3  0  0  0  0  0  0  0  0  0
   -1.7855  -10.4788   -7.2370 C   0  0  0  0  0  0  0  0  0  0  0  0
   -1.4230  -10.6991   -5.9672 C   0  0  0  0  0  0  0  0  0  0  0  0
   -0.3053  -11.7022   -5.8960 C   0  0  0  0  0  0  0  0  0  0  0  0
    0.2625  -11.6663   -7.3186 C   0  0  3  0  0  0  0  0  0  0  0  0
    4.1781   -7.8346   -4.9599 C   0  0  3  0  0  0  0  0  0  0  0  0
    5.3321   -7.6948   -5.9540 C   0  0  0  0  0  0  0  0  0  0  0  0
    4.6207   -6.9912   -7.0690 C   0  0  0  0  0  0  0  0  0  0  0  0
    3.6050   -6.2704   -6.5694 C   0  0  0  0  0  0  0  0  0  0  0  0
    3.5580   -6.4299   -5.0535 C   0  0  3  0  0  0  0  0  0  0  0  0
    2.2356   -6.3521   -4.3341 C   0  0  0  0  0  0  0  0  0  0  0  0
    1.7474   -5.0847   -3.9238 C   0  0  0  0  0  0  0  0  0  0  0  0
   -0.4214   -2.6623   -3.4134 C   0  0  3  0  0  0  0  0  0  0  0  0
   -1.9458   -2.8652   -3.4342 C   0  0  0  0  0  0  0  0  0  0  0  0
   -2.4744   -1.5056   -3.7975 C   0  0  0  0  0  0  0  0  0  0  0  0
   -1.6377   -0.5793   -3.2951 C   0  0  0  0  0  0  0  0  0  0  0  0
   -0.2324   -1.1540   -3.1264 C   0  0  3  0  0  0  0  0  0  0  0  0
    2.5065    0.1673    1.3213 H   0  0  0  0  0  0  0  0  0  0  0  0
    1.1254    1.8831    0.1777 H   0  0  0  0  0  0  0  0  0  0  0  0
   -0.1242    1.2932   -1.8560 H   0  0  0  0  0  0  0  0  0  0  0  0
    2.6531   -2.1140    0.4029 H   0  0  0  0  0  0  0  0  0  0  0  0
    1.8697   -3.6783   -1.1336 H   0  0  0  0  0  0  0  0  0  0  0  0
   -0.4409   -3.8294   -1.5962 H   0  0  0  0  0  0  0  0  0  0  0  0
   -0.7626   -6.1118   -1.8738 H   0  0  0  0  0  0  0  0  0  0  0  0
    0.0428   -8.3017   -2.6064 H   0  0  0  0  0  0  0  0  0  0  0  0
    1.3861   -9.5427   -4.2124 H   0  0  0  0  0  0  0  0  0  0  0  0
    2.4474   -8.4304   -6.2038 H   0  0  0  0  0  0  0  0  0  0  0  0
    5.0819  -10.2929   -4.4233 H   0  0  0  0  0  0  0  0  0  0  0  0
    6.0549  -12.3579   -5.2900 H   0  0  0  0  0  0  0  0  0  0  0  0
    4.9296  -13.6041   -7.1133 H   0  0  0  0  0  0  0  0  0  0  0  0
    2.8297  -12.7800   -8.0558 H   0  0  0  0  0  0  0  0  0  0  0  0
    1.0413   -9.6266   -7.1432 H   0  0  0  0  0  0  0  0  0  0  0  0
    2.5577  -10.1636   -9.2558 H   0  0  0  0  0  0  0  0  0  0  0  0
    1.7948   -9.6865  -11.5260 H   0  0  0  0  0  0  0  0  0  0  0  0
   -0.0362   -9.6362  -13.1647 H   0  0  0  0  0  0  0  0  0  0  0  0
   -3.5784  -10.7649  -12.2366 H   0  0  0  0  0  0  0  0  0  0  0  0
   -3.0607   -8.3842  -12.3790 H   0  0  0  0  0  0  0  0  0  0  0  0
   -4.3555   -6.7801  -13.5811 H   0  0  0  0  0  0  0  0  0  0  0  0
   -6.1443   -6.4221  -15.2384 H   0  0  0  0  0  0  0  0  0  0  0  0
   -6.8658   -8.2807  -16.7158 H   0  0  0  0  0  0  0  0  0  0  0  0
   -5.7768  -10.4890  -16.5394 H   0  0  0  0  0  0  0  0  0  0  0  0
   -3.4646  -11.4805  -15.9479 H   0  0  0  0  0  0  0  0  0  0  0  0
   -5.5705  -12.5388  -14.4552 H   0  0  0  0  0  0  0  0  0  0  0  0
   -3.9857  -14.1663  -13.2289 H   0  0  0  0  0  0  0  0  0  0  0  0
   -1.7283  -13.2468  -14.5330 H   0  0  0  0  0  0  0  0  0  0  0  0
   -1.7496  -12.9252  -12.7862 H   0  0  0  0  0  0  0  0  0  0  0  0
   -1.6036  -10.8582  -14.6086 H   0  0  0  0  0  0  0  0  0  0  0  0
   -2.7340  -11.1331  -10.1741 H   0  0  0  0  0  0  0  0  0  0  0  0
   -1.5502  -12.2855   -8.3046 H   0  0  0  0  0  0  0  0  0  0  0  0
   -2.5864   -9.8245   -7.5512 H   0  0  0  0  0  0  0  0  0  0  0  0
   -1.8976  -10.2552   -5.1031 H   0  0  0  0  0  0  0  0  0  0  0  0
   -0.7159  -12.6847   -5.6632 H   0  0  0  0  0  0  0  0  0  0  0  0
    0.4333  -11.4347   -5.1334 H   0  0  0  0  0  0  0  0  0  0  0  0
    0.6366  -12.6572   -7.6018 H   0  0  0  0  0  0  0  0  0  0  0  0
    4.5652   -8.0610   -3.9432 H   0  0  0  0  0  0  0  0  0  0  0  0
    6.1058   -7.0247   -5.5475 H   0  0  0  0  0  0  0  0  0  0  0  0
    5.8249   -8.6257   -6.2360 H   0  0  0  0  0  0  0  0  0  0  0  0
    4.8529   -7.1577   -8.1133 H   0  0  0  0  0  0  0  0  0  0  0  0
    2.8639   -5.7571   -7.1661 H   0  0  0  0  0  0  0  0  0  0  0  0
    4.2394   -5.6915   -4.6056 H   0  0  0  0  0  0  0  0  0  0  0  0
    2.2849   -4.1851   -4.2289 H   0  0  0  0  0  0  0  0  0  0  0  0
   -0.0507   -2.8494   -4.4322 H   0  0  0  0  0  0  0  0  0  0  0  0
   -2.3575   -3.1250   -2.4495 H   0  0  0  0  0  0  0  0  0  0  0  0
   -2.2568   -3.6308   -4.1486 H   0  0  0  0  0  0  0  0  0  0  0  0
   -2.6541   -1.4293   -4.8765 H   0  0  0  0  0  0  0  0  0  0  0  0
   -2.0090   -0.0869   -2.3918 H   0  0  0  0  0  0  0  0  0  0  0  0
    0.3837   -0.7253   -3.9275 H   0  0  0  0  0  0  0  0  0  0  0  0
  1  2  2  0  0  0  0
  1  6  1  0  0  0  0
  1 59  1  0  0  0  0
  2  3  1  0  0  0  0
  2 60  1  0  0  0  0
  3  4  2  0  0  0  0
  3 61  1  0  0  0  0
  4  5  1  0  0  0  0
  4 58  1  0  0  0  0
  5  6  2  0  0  0  0
  5  7  1  0  0  0  0
  6 62  1  0  0  0  0
  7  8  1  0  0  0  0
  7 63  1  0  0  0  0
  8  9  1  0  0  0  0
  8 54  1  0  0  0  0
  8 64  1  0  0  0  0
  9 10  2  0  0  0  0
  9 53  1  0  0  0  0
 10 11  1  0  0  0  0
 10 65  1  0  0  0  0
 11 12  2  0  0  0  0
 11 66  1  0  0  0  0
 12 13  1  0  0  0  0
 12 52  1  0  0  0  0
 13 14  1  0  0  0  0
 13 67  1  0  0  0  0
 14 15  1  0  0  0  0
 14 47  1  0  0  0  0
 14 68  1  0  0  0  0
 15 16  2  0  0  0  0
 15 20  1  0  0  0  0
 16 17  1  0  0  0  0
 16 69  1  0  0  0  0
 17 18  2  0  0  0  0
 17 70  1  0  0  0  0
 18 19  1  0  0  0  0
 18 71  1  0  0  0  0
 19 20  2  0  0  0  0
 19 72  1  0  0  0  0
 20 21  1  0  0  0  0
 21 22  1  0  0  0  0
 21 46  1  0  0  0  0
 21 73  1  0  0  0  0
 22 23  1  0  0  0  0
 22 74  1  0  0  0  0
 23 24  2  0  0  0  0
 23 41  1  0  0  0  0
 24 25  1  0  0  0  0
 24 75  1  0  0  0  0
 25 26  2  0  0  0  0
 25 76  1  0  0  0  0
 26 27  1  0  0  0  0
 26 40  1  0  0  0  0
 27 28  1  0  0  0  0
 27 39  1  0  0  0  0
 27 77  1  0  0  0  0
 28 29  1  0  0  0  0
 28 78  1  0  0  0  0
 29 30  2  0  0  0  0
 29 34  1  0  0  0  0
 30 31  1  0  0  0  0
 30 79  1  0  0  0  0
 31 32  2  0  0  0  0
 31 80  1  0  0  0  0
 32 33  1  0  0  0  0
 32 81  1  0  0  0  0
 33 34  2  0  0  0  0
 33 82  1  0  0  0  0
 34 35  1  0  0  0  0
 35 36  1  0  0  0  0
 35 39  1  0  0  0  0
 35 83  1  0  0  0  0
 36 37  2  0  0  0  0
 36 84  1  0  0  0  0
 37 38  1  0  0  0  0
 37 85  1  0  0  0  0
 38 39  1  0  0  0  0
 38 86  1  0  0  0  0
 38 87  1  0  0  0  0
 39 88  1  0  0  0  0
 40 41  2  0  0  0  0
 40 89  1  0  0  0  0
 41 42  1  0  0  0  0
 42 43  1  0  0  0  0
 42 46  1  0  0  0  0
 42 90  1  0  0  0  0
 43 44  2  0  0  0  0
 43 91  1  0  0  0  0
 44 45  1  0  0  0  0
 44 92  1  0  0  0  0
 45 46  1  0  0  0  0
 45 93  1  0  0  0  0
 45 94  1  0  0  0  0
 46 95  1  0  0  0  0
 47 48  1  0  0  0  0
 47 51  1  0  0  0  0
 47 96  1  0  0  0  0
 48 49  1  0  0  0  0
 48 97  1  0  0  0  0
 48 98  1  0  0  0  0
 49 50  2  0  0  0  0
 49 99  1  0  0  0  0
 50 51  1  0  0  0  0
 50100  1  0  0  0  0
 51 52  1  0  0  0  0
 51101  1  0  0  0  0
 52 53  2  0  0  0  0
 53102  1  0  0  0  0
 54 55  1  0  0  0  0
 54 58  1  0  0  0  0
 54103  1  0  0  0  0
 55 56  1  0  0  0  0
 55104  1  0  0  0  0
 55105  1  0  0  0  0
 56 57  2  3  0  0  0
 56106  1  0  0  0  0
 57 58  1  0  0  0  0
 57107  1  0  0  0  0
 58108  1  0  0  0  0
M  END
