REMARK  Name = 
REMARK  9 active torsions:
REMARK  status: ('A' for Active; 'I' for Inactive)
REMARK    1  A    between atoms: C_2  and  N_3
REMARK    2  A    between atoms: N_3  and  C_4
REMARK    3  A    between atoms: C_7  and  C_8
REMARK    4  A    between atoms: C_9  and  S_10
REMARK    5  A    between atoms: S_10  and  C_11
REMARK    6  A    between atoms: C_11  and  C_12
REMARK    7  A    between atoms: C_11  and  C_13
REMARK    8  A    between atoms: C_17  and  S_18
REMARK    9  A    between atoms: S_18  and  C_19
REMARK                            x       y       z     vdW  Elec       q    Type
REMARK                         _______ _______ _______ _____ _____    ______ ____
ROOT
ATOM      1  C   UNL     1       5.782  -3.145  -2.817  0.00  0.00    +0.000 A 
ATOM      2  C   UNL     1       6.929  -2.369  -2.478  0.00  0.00    +0.000 A 
ATOM      3  C   UNL     1       8.168  -2.999  -2.275  0.00  0.00    +0.000 A 
ATOM      4  C   UNL     1       8.305  -4.379  -2.427  0.00  0.00    +0.000 A 
ATOM      5  C   UNL     1       7.206  -5.146  -2.810  0.00  0.00    +0.000 A 
ATOM      6  C   UNL     1       5.965  -4.527  -3.034  0.00  0.00    +0.000 A 
ENDROOT
BRANCH   1  10
ATOM      7  C   UNL     1       2.941  -1.899  -4.718  0.00  0.00    +0.000 C 
ATOM      8  C   UNL     1       2.139  -2.826  -3.819  0.00  0.00    +0.000 C 
ATOM      9  C   UNL     1       3.119  -3.385  -2.790  0.00  0.00    +0.000 C 
ATOM     10  C   UNL     1       4.385  -2.505  -2.816  0.00  0.00    +0.000 C 
ATOM     11  C   UNL     1       4.159  -1.459  -3.920  0.00  0.00    +0.000 C 
BRANCH   7  12
ATOM     12  N   UNL     1       2.176  -0.762  -5.239  0.00  0.00    +0.000 N 
ATOM     13  H   UNL     1       1.639  -0.959  -6.070  0.00  0.00    +0.000 HD
BRANCH  12  15
ATOM     14  C   UNL     1       0.977   0.971  -3.620  0.00  0.00    +0.000 C 
ATOM     15  C   UNL     1       1.526   0.176  -4.322  0.00  0.00    +0.000 C 
ENDBRANCH  12  15
ENDBRANCH   7  12
ENDBRANCH   1  10
BRANCH   5  16
ATOM     16  S   UNL     1       7.392  -6.945  -2.917  0.00  0.00    +0.000 S 
ATOM     17  C   UNL     1       6.807  -7.315  -1.238  0.00  0.00    +0.000 C 
ATOM     18  O   UNL     1       6.325  -7.408  -3.865  0.00  0.00    +0.000 OA
ENDBRANCH   5  16
BRANCH   2  19
ATOM     19  S   UNL     1       6.758  -0.628  -2.074  0.00  0.00    +0.000 S 
BRANCH  19  20
ATOM     20  C   UNL     1       8.206   0.213  -2.828  0.00  0.00    +0.000 C 
ATOM     21  C   UNL     1       8.042   0.529  -4.311  0.00  0.00    +0.000 C 
BRANCH  20  22
ATOM     22  C   UNL     1       8.312   1.518  -2.059  0.00  0.00    +0.000 C 
ATOM     23  O   UNL     1       9.344   1.898  -1.516  0.00  0.00    +0.000 OA
ENDBRANCH  20  22
ENDBRANCH  19  20
ENDBRANCH   2  19
TORSDOF 7
