REMARK  Name = 
REMARK  7 active torsions:
REMARK  status: ('A' for Active; 'I' for Inactive)
REMARK    1  A    between atoms: N_4  and  C_5
REMARK    2  A    between atoms: C_8  and  N_9
REMARK    3  A    between atoms: C_12  and  C_13
REMARK    4  A    between atoms: C_13  and  N_14
REMARK    5  A    between atoms: C_13  and  C_17
REMARK    6  A    between atoms: C_20  and  N_21
REMARK    7  A    between atoms: N_21  and  C_22
REMARK                            x       y       z     vdW  Elec       q    Type
REMARK                         _______ _______ _______ _____ _____    ______ ____
ROOT
ATOM      1  C   UNL     1       6.828   0.072  -0.310  0.00  0.00    +0.000 A 
ATOM      2  C   UNL     1       5.478   0.312  -0.530  0.00  0.00    +0.000 A 
ATOM      3  C   UNL     1       4.739   1.014   0.419  0.00  0.00    +0.000 A 
ATOM      4  C   UNL     1       5.360   1.476   1.596  0.00  0.00    +0.000 A 
ATOM      5  C   UNL     1       6.702   1.179   1.905  0.00  0.00    +0.000 A 
ATOM      6  C   UNL     1       7.390   0.447   0.913  0.00  0.00    +0.000 A 
ENDROOT
BRANCH   1  10
ATOM      7  N   UNL     1       8.530  -1.131  -3.267  0.00  0.00    +0.000 N 
ATOM      8  C   UNL     1       7.470  -0.599  -2.597  0.00  0.00    +0.000 C 
ATOM      9  O   UNL     1       6.486  -0.235  -3.228  0.00  0.00    +0.000 OA
ATOM     10  N   UNL     1       7.696  -0.503  -1.256  0.00  0.00    +0.000 N 
ATOM     11  H   UNL     1       8.336  -1.257  -4.251  0.00  0.00    +0.000 HD
ATOM     12  H   UNL     1       9.005  -1.913  -2.831  0.00  0.00    +0.000 HD
ATOM     13  H   UNL     1       8.663  -0.615  -0.981  0.00  0.00    +0.000 HD
ENDBRANCH   1  10
BRANCH   4  14
ATOM     14  N   UNL     1       4.551   2.334   2.448  0.00  0.00    +0.000 N 
ATOM     15  O   UNL     1       3.462   1.892   2.834  0.00  0.00    +0.000 OA
ATOM     16  O   UNL     1       4.995   3.466   2.696  0.00  0.00    +0.000 OA
ENDBRANCH   4  14
BRANCH   5  17
ATOM     17  C   UNL     1       7.380   1.520   3.244  0.00  0.00    +0.000 C 
BRANCH  17  18
ATOM     18  C   UNL     1       8.803   2.102   3.175  0.00  0.00    +0.000 A 
ATOM     19  C   UNL     1       9.061   3.413   3.618  0.00  0.00    +0.000 A 
ATOM     20  C   UNL     1      10.305   4.033   3.390  0.00  0.00    +0.000 A 
ATOM     21  C   UNL     1      11.309   3.374   2.678  0.00  0.00    +0.000 A 
ATOM     22  C   UNL     1      11.086   2.050   2.311  0.00  0.00    +0.000 A 
ATOM     23  C   UNL     1       9.888   1.406   2.626  0.00  0.00    +0.000 A 
BRANCH  21  24
ATOM     24  N   UNL     1      12.523   3.966   2.273  0.00  0.00    +0.000 N 
ATOM     25  H   UNL     1      12.554   4.032   1.256  0.00  0.00    +0.000 HD
BRANCH  24  26
ATOM     26  C   UNL     1      13.124   5.062   3.020  0.00  0.00    +0.000 C 
ATOM     27  C   UNL     1      12.880   6.501   2.685  0.00  0.00    +0.000 C 
ATOM     28  C   UNL     1      14.221   5.888   2.400  0.00  0.00    +0.000 C 
ENDBRANCH  24  26
ENDBRANCH  21  24
ENDBRANCH  17  18
BRANCH  17  29
ATOM     29  N   UNL     1       7.221   0.460   4.233  0.00  0.00    +0.000 N 
ATOM     30  C   UNL     1       7.665  -0.829   4.123  0.00  0.00    +0.000 C 
ATOM     31  O   UNL     1       8.259  -1.331   3.182  0.00  0.00    +0.000 OA
ATOM     32  H   UNL     1       6.780   0.716   5.106  0.00  0.00    +0.000 HD
ENDBRANCH  17  29
ENDBRANCH   5  17
TORSDOF 7
