REMARK  Name = 
REMARK  6 active torsions:
REMARK  status: ('A' for Active; 'I' for Inactive)
REMARK    1  A    between atoms: N_2  and  C_4
REMARK    2  A    between atoms: C_7  and  C_8
REMARK    3  A    between atoms: C_13  and  C_14
REMARK    4  A    between atoms: C_16  and  C_17
REMARK    5  A    between atoms: C_17  and  C_18
REMARK    6  A    between atoms: C_22  and  C_23
REMARK                            x       y       z     vdW  Elec       q    Type
REMARK                         _______ _______ _______ _____ _____    ______ ____
ROOT
ATOM      1  C   UNL     1       4.489  -0.522   1.911  0.00  0.00    +0.000 A 
ATOM      2  C   UNL     1       3.623  -0.440   3.034  0.00  0.00    +0.000 A 
ATOM      3  C   UNL     1       3.894   0.333   4.171  0.00  0.00    +0.000 A 
ATOM      4  C   UNL     1       5.121   0.968   4.260  0.00  0.00    +0.000 A 
ATOM      5  C   UNL     1       5.996   0.938   3.174  0.00  0.00    +0.000 A 
ATOM      6  C   UNL     1       5.702   0.254   1.966  0.00  0.00    +0.000 A 
ENDROOT
BRANCH   6   7
ATOM      7  C   UNL     1       6.697   0.389   0.852  0.00  0.00    +0.000 A 
ATOM      8  C   UNL     1       6.299   0.555  -0.489  0.00  0.00    +0.000 A 
ATOM      9  C   UNL     1       7.262   0.547  -1.486  0.00  0.00    +0.000 A 
ATOM     10  C   UNL     1       8.602   0.473  -1.202  0.00  0.00    +0.000 A 
ATOM     11  C   UNL     1       9.057   0.396   0.090  0.00  0.00    +0.000 A 
ATOM     12  C   UNL     1       8.097   0.330   1.114  0.00  0.00    +0.000 A 
ATOM     13  O   UNL     1       9.374   0.465  -2.321  0.00  0.00    +0.000 OA
ATOM     14  C   UNL     1       8.360   0.455  -3.347  0.00  0.00    +0.000 C 
ATOM     15  O   UNL     1       7.018   0.571  -2.825  0.00  0.00    +0.000 OA
ENDBRANCH   6   7
BRANCH   1  21
ATOM     16  C   UNL     1       2.830  -1.810   0.349  0.00  0.00    +0.000 A 
ATOM     17  C   UNL     1       2.581  -2.793  -0.631  0.00  0.00    +0.000 A 
ATOM     18  C   UNL     1       3.643  -3.447  -1.246  0.00  0.00    +0.000 A 
ATOM     19  C   UNL     1       4.950  -3.151  -0.860  0.00  0.00    +0.000 A 
ATOM     20  C   UNL     1       5.165  -2.235   0.190  0.00  0.00    +0.000 A 
ATOM     21  C   UNL     1       4.134  -1.490   0.807  0.00  0.00    +0.000 A 
BRANCH  19  22
ATOM     22  C   UNL     1       6.143  -3.754  -1.565  0.00  0.00    +0.000 C 
ATOM     23  F   UNL     1       5.814  -4.783  -2.397  0.00  0.00    +0.000 F 
ATOM     24  F   UNL     1       6.806  -2.851  -2.335  0.00  0.00    +0.000 F 
ATOM     25  F   UNL     1       7.063  -4.260  -0.698  0.00  0.00    +0.000 F 
ENDBRANCH  19  22
BRANCH  16  27
ATOM     26  O   UNL     1       0.830  -1.840   1.479  0.00  0.00    +0.000 OA
ATOM     27  N   UNL     1       1.642  -1.141   0.848  0.00  0.00    +0.000 N 
ATOM     28  O   UNL     1       1.506   0.060   0.584  0.00  0.00    +0.000 OA
ENDBRANCH  16  27
ENDBRANCH   1  21
BRANCH   3  29
ATOM     29  C   UNL     1       2.867   0.461   5.270  0.00  0.00    +0.000 C 
BRANCH  29  30
ATOM     30  C   UNL     1       2.865  -0.716   6.230  0.00  0.00    +0.000 C 
ATOM     31  F   UNL     1       4.047  -0.761   6.900  0.00  0.00    +0.000 F 
ENDBRANCH  29  30
ENDBRANCH   3  29
TORSDOF 6
