REMARK  Name = 
REMARK  5 active torsions:
REMARK  status: ('A' for Active; 'I' for Inactive)
REMARK    1  A    between atoms: C_2  and  C_5
REMARK    2  A    between atoms: C_6  and  O_7
REMARK    3  A    between atoms: O_7  and  C_8
REMARK    4  A    between atoms: C_10  and  C_11
REMARK    5  A    between atoms: C_21  and  C_22
REMARK                            x       y       z     vdW  Elec       q    Type
REMARK                         _______ _______ _______ _____ _____    ______ ____
ROOT
ATOM      1  C   UNL     1       2.594  -1.159  -1.000  0.00  0.00    +0.000 A 
ATOM      2  C   UNL     1       3.567  -0.960  -1.984  0.00  0.00    +0.000 A 
ATOM      3  C   UNL     1       4.002  -2.048  -2.755  0.00  0.00    +0.000 A 
ATOM      4  C   UNL     1       3.595  -3.342  -2.453  0.00  0.00    +0.000 A 
ATOM      5  C   UNL     1       2.700  -3.576  -1.408  0.00  0.00    +0.000 A 
ATOM      6  C   UNL     1       2.177  -2.477  -0.716  0.00  0.00    +0.000 A 
ENDROOT
BRANCH   5   7
ATOM      7  C   UNL     1       2.308  -4.987  -1.010  0.00  0.00    +0.000 C 
ATOM      8  C   UNL     1       3.533  -5.772  -0.505  0.00  0.00    +0.000 C 
ATOM      9  C   UNL     1       3.165  -7.202  -0.124  0.00  0.00    +0.000 C 
ATOM     10  C   UNL     1       2.473  -7.924  -1.275  0.00  0.00    +0.000 C 
ATOM     11  C   UNL     1       1.247  -7.157  -1.763  0.00  0.00    +0.000 C 
ATOM     12  C   UNL     1       1.602  -5.726  -2.157  0.00  0.00    +0.000 C 
ENDBRANCH   5   7
BRANCH   1  14
ATOM     13  F   UNL     1       2.416   1.208  -0.458  0.00  0.00    +0.000 F 
ATOM     14  C   UNL     1       1.939  -0.043  -0.223  0.00  0.00    +0.000 C 
ATOM     15  F   UNL     1       2.046  -0.230   1.126  0.00  0.00    +0.000 F 
ATOM     16  F   UNL     1       0.598   0.023  -0.469  0.00  0.00    +0.000 F 
ENDBRANCH   1  14
BRANCH   2  17
ATOM     17  O   UNL     1       4.068   0.310  -2.200  0.00  0.00    +0.000 OA
BRANCH  17  18
ATOM     18  C   UNL     1       5.400   0.436  -2.557  0.00  0.00    +0.000 A 
ATOM     19  C   UNL     1       6.426  -0.342  -1.998  0.00  0.00    +0.000 A 
ATOM     20  C   UNL     1       7.753  -0.219  -2.441  0.00  0.00    +0.000 A 
ATOM     21  C   UNL     1       8.039   0.746  -3.415  0.00  0.00    +0.000 A 
ATOM     22  C   UNL     1       7.027   1.561  -3.938  0.00  0.00    +0.000 A 
ATOM     23  C   UNL     1       5.709   1.406  -3.507  0.00  0.00    +0.000 A 
BRANCH  20  24
ATOM     24  C   UNL     1       8.793  -1.089  -1.894  0.00  0.00    +0.000 A 
ATOM     25  C   UNL     1       8.784  -2.194  -1.061  0.00  0.00    +0.000 A 
ATOM     26  C   UNL     1      10.134  -2.580  -0.875  0.00  0.00    +0.000 A 
ATOM     27  C   UNL     1      10.885  -1.702  -1.619  0.00  0.00    +0.000 A 
ATOM     28  O   UNL     1      10.084  -0.802  -2.244  0.00  0.00    +0.000 OA
ENDBRANCH  20  24
ENDBRANCH  17  18
ENDBRANCH   2  17
TORSDOF 5
