
 OpenBabel06022115293D

 35 36  0  0  1  0  0  0  0  0999 V2000
   -3.1044   -0.1187   -0.0169 C   0  0  0  0  0  0  0  0  0  0  0  0
   -1.9008   -0.1109   -0.0316 C   0  0  0  0  0  0  0  0  0  0  0  0
   -0.4609   -0.0635   -0.0257 C   0  0  0  0  0  0  0  0  0  0  0  0
    0.2987   -1.2393    0.0080 C   0  0  0  0  0  0  0  0  0  0  0  0
    1.7297   -1.2501    0.0318 C   0  0  0  0  0  0  0  0  0  0  0  0
    2.3674   -2.4792    0.0722 N   0  0  0  0  0  0  0  0  0  0  0  0
    3.6984   -2.7291   -0.4670 C   0  0  0  0  0  0  0  0  0  0  0  0
    3.6766   -4.2010   -0.8375 C   0  0  0  0  0  0  0  0  0  0  0  0
    2.8028   -4.7966    0.2522 C   0  0  0  0  0  0  0  0  0  0  0  0
    1.7238   -3.7367    0.4620 C   0  0  0  0  0  0  0  0  0  0  0  0
    2.3738    0.0139   -0.0022 C   0  0  0  0  0  0  0  0  0  0  0  0
    3.8738    0.2236    0.0469 C   0  0  0  0  0  0  0  0  0  0  0  0
    4.6942   -0.4503    0.6350 O   0  0  0  0  0  0  0  0  0  0  0  0
    4.1982    1.3221   -0.6905 O   0  0  0  0  0  0  0  0  0  0  0  0
    5.5932    1.6470   -0.7058 C   0  0  3  0  0  0  0  0  0  0  0  0
    6.3350    0.8826   -1.7859 C   0  0  0  0  0  0  0  0  0  0  0  0
    5.6574    2.9708   -1.0289 F   0  0  0  0  0  0  0  0  0  0  0  0
    1.5928    1.1947   -0.0172 C   0  0  0  0  0  0  0  0  0  0  0  0
    0.1955    1.1529   -0.0320 C   0  0  0  0  0  0  0  0  0  0  0  0
   -4.1678   -0.0872    0.0119 H   0  0  0  0  0  0  0  0  0  0  0  0
   -0.2527   -2.1769   -0.0101 H   0  0  0  0  0  0  0  0  0  0  0  0
    4.4512   -2.6039    0.3158 H   0  0  0  0  0  0  0  0  0  0  0  0
    3.9323   -2.1134   -1.3409 H   0  0  0  0  0  0  0  0  0  0  0  0
    4.6819   -4.6273   -0.8585 H   0  0  0  0  0  0  0  0  0  0  0  0
    3.2141   -4.3330   -1.8213 H   0  0  0  0  0  0  0  0  0  0  0  0
    3.3841   -4.9296    1.1725 H   0  0  0  0  0  0  0  0  0  0  0  0
    2.3825   -5.7641   -0.0330 H   0  0  0  0  0  0  0  0  0  0  0  0
    1.3968   -3.7187    1.5094 H   0  0  0  0  0  0  0  0  0  0  0  0
    0.8686   -3.9649   -0.1793 H   0  0  0  0  0  0  0  0  0  0  0  0
    6.0657    1.5358    0.2774 H   0  0  0  0  0  0  0  0  0  0  0  0
    5.8451    1.0228   -2.7557 H   0  0  0  0  0  0  0  0  0  0  0  0
    6.3640   -0.1922   -1.5831 H   0  0  0  0  0  0  0  0  0  0  0  0
    7.3605    1.2535   -1.8798 H   0  0  0  0  0  0  0  0  0  0  0  0
    2.0713    2.1703   -0.0010 H   0  0  0  0  0  0  0  0  0  0  0  0
   -0.3682    2.0848   -0.0411 H   0  0  0  0  0  0  0  0  0  0  0  0
  1  2  3  0  0  0  0
  1 20  1  0  0  0  0
  2  3  1  0  0  0  0
  3  4  2  0  0  0  0
  3 19  1  0  0  0  0
  4  5  1  0  0  0  0
  4 21  1  0  0  0  0
  5  6  1  0  0  0  0
  5 11  2  0  0  0  0
  6  7  1  0  0  0  0
  6 10  1  0  0  0  0
  7  8  1  0  0  0  0
  7 22  1  0  0  0  0
  7 23  1  0  0  0  0
  8  9  1  0  0  0  0
  8 24  1  0  0  0  0
  8 25  1  0  0  0  0
  9 10  1  0  0  0  0
  9 26  1  0  0  0  0
  9 27  1  0  0  0  0
 10 28  1  0  0  0  0
 10 29  1  0  0  0  0
 11 12  1  0  0  0  0
 11 18  1  0  0  0  0
 12 13  2  0  0  0  0
 12 14  1  0  0  0  0
 14 15  1  0  0  0  0
 15 16  1  0  0  0  0
 15 17  1  0  0  0  0
 15 30  1  0  0  0  0
 16 31  1  0  0  0  0
 16 32  1  0  0  0  0
 16 33  1  0  0  0  0
 18 19  2  0  0  0  0
 18 34  1  0  0  0  0
 19 35  1  0  0  0  0
M  END
