REMARK  Name = 
REMARK  6 active torsions:
REMARK  status: ('A' for Active; 'I' for Inactive)
REMARK    1  A    between atoms: C_2  and  C_3
REMARK    2  A    between atoms: C_2  and  C_30
REMARK    3  A    between atoms: N_5  and  C_6
REMARK    4  A    between atoms: N_5  and  C_21
REMARK    5  A    between atoms: C_10  and  C_11
REMARK    6  A    between atoms: C_14  and  N_15
REMARK                            x       y       z     vdW  Elec       q    Type
REMARK                         _______ _______ _______ _____ _____    ______ ____
ROOT
ATOM      1  C   UNL     1       2.870  -0.208   1.136  0.00  0.00    +0.000 C 
ATOM      2  O   UNL     1       4.019  -0.478   0.784  0.00  0.00    +0.000 OA
ATOM      3  N   UNL     1       2.199  -0.753   2.247  0.00  0.00    +0.000 N 
ENDROOT
BRANCH   3   4
ATOM      4  C   UNL     1       3.007  -1.441   3.200  0.00  0.00    +0.000 A 
ATOM      5  C   UNL     1       2.838  -2.774   3.595  0.00  0.00    +0.000 A 
ATOM      6  C   UNL     1       3.884  -3.446   4.267  0.00  0.00    +0.000 A 
ATOM      7  C   UNL     1       5.084  -2.793   4.576  0.00  0.00    +0.000 A 
ATOM      8  C   UNL     1       5.185  -1.458   4.259  0.00  0.00    +0.000 A 
ATOM      9  C   UNL     1       4.159  -0.798   3.632  0.00  0.00    +0.000 A 
ATOM     10  O   UNL     1       4.442   0.527   3.441  0.00  0.00    +0.000 OA
ATOM     11  C   UNL     1       5.856   0.508   3.689  0.00  0.00    +0.000 C 
ATOM     12  O   UNL     1       6.271  -0.656   4.437  0.00  0.00    +0.000 OA
ENDBRANCH   3   4
BRANCH   3  13
ATOM     13  C   UNL     1       0.807  -0.970   2.253  0.00  0.00    +0.000 A 
ATOM     14  C   UNL     1      -0.010  -0.032   2.886  0.00  0.00    +0.000 A 
ATOM     15  C   UNL     1      -1.387  -0.222   2.910  0.00  0.00    +0.000 A 
ATOM     16  C   UNL     1      -1.945  -1.350   2.303  0.00  0.00    +0.000 A 
ATOM     17  C   UNL     1      -1.153  -2.289   1.613  0.00  0.00    +0.000 A 
ATOM     18  C   UNL     1       0.238  -2.077   1.603  0.00  0.00    +0.000 A 
BRANCH  17  19
ATOM     19  C   UNL     1      -1.773  -3.410   0.864  0.00  0.00    +0.000 A 
ATOM     20  C   UNL     1      -3.001  -3.222   0.198  0.00  0.00    +0.000 A 
ATOM     21  C   UNL     1      -3.584  -4.229  -0.576  0.00  0.00    +0.000 A 
ATOM     22  C   UNL     1      -2.934  -5.457  -0.707  0.00  0.00    +0.000 A 
ATOM     23  C   UNL     1      -1.724  -5.688  -0.043  0.00  0.00    +0.000 A 
ATOM     24  C   UNL     1      -1.157  -4.671   0.741  0.00  0.00    +0.000 A 
BRANCH  22  25
ATOM     25  N   UNL     1      -3.519  -6.495  -1.562  0.00  0.00    +0.000 N 
ATOM     26  O   UNL     1      -4.607  -6.251  -2.104  0.00  0.00    +0.000 OA
ATOM     27  O   UNL     1      -2.890  -7.555  -1.696  0.00  0.00    +0.000 OA
ENDBRANCH  22  25
ENDBRANCH  17  19
ENDBRANCH   3  13
BRANCH   1  29
ATOM     28  O   UNL     1       1.147   0.745  -0.201  0.00  0.00    +0.000 OA
ATOM     29  C   UNL     1       2.196   0.929   0.396  0.00  0.00    +0.000 C 
BRANCH  29  30
ATOM     30  C   UNL     1       2.994   2.229   0.417  0.00  0.00    +0.000 C 
ATOM     31  C   UNL     1       3.955   2.277  -0.730  0.00  0.00    +0.000 C 
ATOM     32  C   UNL     1       3.741   3.313  -1.550  0.00  0.00    +0.000 C 
ATOM     33  C   UNL     1       2.598   4.152  -1.087  0.00  0.00    +0.000 C 
ATOM     34  C   UNL     1       2.128   3.478   0.208  0.00  0.00    +0.000 C 
ENDBRANCH  29  30
ENDBRANCH   1  29
TORSDOF 6
